2018-07-29 19:13:55,066  INFO Config:569 setting context to [file:/Users/kainagel/git/au-flood-evacuation/]
2018-07-29 19:13:55,069  INFO MatsimXmlParser:155 starting to parse xml from url file:/Users/kainagel/git/au-flood-evacuation/scenarios/fem2016_v20180307/configSmall.xml ...
2018-07-29 19:13:55,071  INFO ConfigReader:102 using config_v2-reader
2018-07-29 19:13:55,071  INFO MatsimXmlParser:270 Trying to load http://www.matsim.org/files/dtd/config_v2.dtd. In some cases (e.g. network interface up but no connection), this may take a bit.
2018-07-29 19:13:55,140  INFO Config:569 setting context to [file:/Users/kainagel/git/au-flood-evacuation/scenarios/fem2016_v20180307/configSmall.xml]
2018-07-29 19:13:55,149  WARN RunMatsim4FloodEvacuation:421 runType=justRunInitialPlansFile
2018-07-29 19:13:55,149  INFO MatsimXmlParser:155 starting to parse xml from url file:/Users/kainagel/git/au-flood-evacuation/scenarios/fem2016_v20180307/overridingConfig.xml ...
2018-07-29 19:13:55,150  INFO ConfigReader:102 using config_v2-reader
2018-07-29 19:13:55,150  INFO MatsimXmlParser:270 Trying to load http://www.matsim.org/files/dtd/config_v2.dtd. In some cases (e.g. network interface up but no connection), this may take a bit.
2018-07-29 19:13:55,214  INFO ScenarioLoaderImpl:107 loading scenario from base directory: /Users/kainagel/git/au-flood-evacuation/
2018-07-29 19:13:55,215  INFO ScenarioLoaderImpl:129 loading network from file:/Users/kainagel/git/au-flood-evacuation/scenarios/fem2016_v20180307/hn_net_ses_emme_2016_V12_network.xml.gz
2018-07-29 19:13:55,215  INFO MatsimXmlParser:155 starting to parse xml from url file:/Users/kainagel/git/au-flood-evacuation/scenarios/fem2016_v20180307/hn_net_ses_emme_2016_V12_network.xml.gz ...
2018-07-29 19:13:55,216  INFO MatsimNetworkReader:95 using network_v2-reader.
2018-07-29 19:13:55,216  INFO MatsimXmlParser:270 Trying to load http://www.matsim.org/files/dtd/network_v2.dtd. In some cases (e.g. network interface up but no connection), this may take a bit.
2018-07-29 19:13:55,286  INFO NetworkImpl:167  node # 1
2018-07-29 19:13:55,286  INFO NetworkImpl:167  node # 4
2018-07-29 19:13:55,287  INFO NetworkImpl:167  node # 16
2018-07-29 19:13:55,287  INFO NetworkImpl:167  node # 64
2018-07-29 19:13:55,288  INFO NetworkImpl:167  node # 256
2018-07-29 19:13:55,292  INFO NetworkImpl:167  node # 1024
2018-07-29 19:13:55,301  INFO NetworkImpl:163  link # 1
2018-07-29 19:13:55,301  INFO NetworkImpl:163  link # 4
2018-07-29 19:13:55,302  INFO NetworkImpl:163  link # 16
2018-07-29 19:13:55,303  INFO NetworkImpl:163  link # 64
2018-07-29 19:13:55,305  INFO NetworkImpl:163  link # 256
2018-07-29 19:13:55,316  INFO NetworkImpl:163  link # 1024
2018-07-29 19:13:55,361  INFO NetworkImpl:163  link # 4096
2018-07-29 19:13:55,446  INFO ScenarioLoaderImpl:147 loading network change events from /Users/kainagel/git/au-flood-evacuation/scenarios/fem2016_v20180307/d09693_H_change_events.xml.gz
2018-07-29 19:13:55,446  INFO MatsimXmlParser:155 starting to parse xml from url file:/Users/kainagel/git/au-flood-evacuation/scenarios/fem2016_v20180307/d09693_H_change_events.xml.gz ...
2018-07-29 19:13:55,447  INFO MatsimXmlParser:270 Trying to load http://www.matsim.org/files/dtd/networkChangeEvents.xsd. In some cases (e.g. network interface up but no connection), this may take a bit.
2018-07-29 19:13:55,516  INFO MatsimXmlParser:270 Trying to load http://www.matsim.org/files/dtd/matsimCommon.xsd. In some cases (e.g. network interface up but no connection), this may take a bit.
2018-07-29 19:13:55,595  INFO ScenarioLoaderImpl:181 no facilities file set in config, therefore not loading any facilities.  This is not a problem except if you are using facilities
2018-07-29 19:13:55,595  INFO ScenarioLoaderImpl:191 no facility-attributes file set in config, not loading any facility attributes
2018-07-29 19:13:55,595  INFO ScenarioLoaderImpl:198 loading population from file:/Users/kainagel/git/au-flood-evacuation/scenarios/fem2016_v20180307/pop.xml.gz
2018-07-29 19:13:55,595  INFO MatsimXmlParser:155 starting to parse xml from url file:/Users/kainagel/git/au-flood-evacuation/scenarios/fem2016_v20180307/pop.xml.gz ...
2018-07-29 19:13:55,597  INFO PopulationReader:109 using population_v6-reader.
2018-07-29 19:13:55,597  INFO MatsimXmlParser:270 Trying to load http://www.matsim.org/files/dtd/population_v6.dtd. In some cases (e.g. network interface up but no connection), this may take a bit.
2018-07-29 19:13:55,664  INFO PopulationImpl:112  person # 1
2018-07-29 19:13:55,665  INFO PopulationImpl:112  person # 4
2018-07-29 19:13:55,665  INFO PopulationImpl:112  person # 16
2018-07-29 19:13:55,666  INFO PopulationImpl:112  person # 64
2018-07-29 19:13:55,669  INFO PopulationImpl:112  person # 256
2018-07-29 19:13:55,682  INFO PopulationImpl:112  person # 1024
2018-07-29 19:13:55,726  INFO PopulationImpl:112  person # 4096
2018-07-29 19:13:56,145  INFO PopulationImpl:112  person # 16384
2018-07-29 19:13:57,036  INFO PopulationImpl:112  person # 65536
2018-07-29 19:13:57,207  INFO PopulationUtils:1004  person # 76169
2018-07-29 19:13:57,207  INFO ScenarioLoaderImpl:234 no person-attributes file set in config, not loading any person attributes
2018-07-29 19:13:57,207  INFO ScenarioLoaderImpl:246 no households file set in config, not loading households
2018-07-29 19:13:57,207  INFO ScenarioLoaderImpl:257 no household-attributes file set in config, not loading any household attributes
2018-07-29 19:13:57,207  INFO ScenarioLoaderImpl:283 no transit schedule file set in config, not loading any transit schedule
2018-07-29 19:13:57,207  INFO ScenarioLoaderImpl:310 no transit vehicles file set in config, not loading any transit vehicles
2018-07-29 19:13:57,240  INFO FEMUtils:160 safeLinkIDs:
2018-07-29 19:13:57,240  INFO FEMUtils:162 13082-11096
2018-07-29 19:13:57,240  INFO FEMUtils:162 11119-15923
2018-07-29 19:13:57,240  INFO FEMUtils:162 15136-24070
2018-07-29 19:13:57,240  INFO FEMUtils:162 10958-13225
2018-07-29 19:13:57,241  INFO FEMUtils:162 10946-10945
2018-07-29 19:13:57,241  INFO FEMUtils:162 24690-10392
2018-07-29 19:13:57,241  INFO FEMUtils:162 40089-40085
2018-07-29 19:13:57,241  INFO FEMUtils:162 11139-10480
2018-07-29 19:13:57,241  INFO FEMUtils:162 50009-2774
2018-07-29 19:13:57,241  INFO FEMUtils:162 18423-18439
2018-07-29 19:13:57,241  INFO FEMUtils:162 51258-50063
2018-07-29 19:13:57,241  INFO FEMUtils:162 52104-52105
2018-07-29 19:13:57,241  INFO FEMUtils:162 40394-40402
2018-07-29 19:13:57,248  WARN FEMUtils:96 origEndTime=30600.0; newEndTime=0.0
2018-07-29 19:13:57,248  WARN FEMUtils:96 origEndTime=30600.0; newEndTime=0.0
2018-07-29 19:13:57,248  WARN FEMUtils:96 origEndTime=30600.0; newEndTime=0.0
2018-07-29 19:13:57,248  WARN FEMUtils:96 origEndTime=30600.0; newEndTime=0.0
2018-07-29 19:13:57,248  WARN FEMUtils:96 origEndTime=30600.0; newEndTime=0.0
2018-07-29 19:13:57,248  WARN FEMUtils:96 origEndTime=30600.0; newEndTime=0.0
2018-07-29 19:13:57,248  WARN FEMUtils:96 origEndTime=30600.0; newEndTime=0.0
2018-07-29 19:13:57,248  WARN FEMUtils:96 origEndTime=30600.0; newEndTime=0.0
2018-07-29 19:13:57,249  WARN FEMUtils:96 origEndTime=30600.0; newEndTime=0.0
2018-07-29 19:13:57,249  WARN FEMUtils:96 origEndTime=30600.0; newEndTime=0.0
2018-07-29 19:13:57,249  WARN FEMUtils:96 origEndTime=30600.0; newEndTime=0.0
2018-07-29 19:13:57,249  WARN FEMUtils:96 origEndTime=30600.0; newEndTime=0.0
2018-07-29 19:13:57,249  WARN FEMUtils:96 origEndTime=30600.0; newEndTime=0.0
2018-07-29 19:13:57,249  WARN FEMUtils:96 origEndTime=30600.0; newEndTime=1.0
2018-07-29 19:13:57,249  WARN FEMUtils:96 origEndTime=30600.0; newEndTime=1.0
2018-07-29 19:13:57,249  WARN FEMUtils:96 origEndTime=30600.0; newEndTime=1.0
2018-07-29 19:13:57,249  WARN FEMUtils:96 origEndTime=30600.0; newEndTime=1.0
2018-07-29 19:13:57,250  WARN FEMUtils:96 origEndTime=30600.0; newEndTime=1.0
2018-07-29 19:13:57,250  WARN FEMUtils:96 origEndTime=30600.0; newEndTime=1.0
2018-07-29 19:13:57,250  WARN FEMUtils:96 origEndTime=30600.0; newEndTime=1.0
2018-07-29 19:13:57,250  WARN FEMUtils:96 origEndTime=30600.0; newEndTime=1.0
2018-07-29 19:13:57,250  WARN FEMUtils:96 origEndTime=30600.0; newEndTime=1.0
2018-07-29 19:13:57,250  WARN FEMUtils:96 origEndTime=30600.0; newEndTime=1.0
2018-07-29 19:13:57,250  WARN FEMUtils:96 origEndTime=30600.0; newEndTime=1.0
2018-07-29 19:13:57,250  WARN FEMUtils:96 origEndTime=30600.0; newEndTime=1.0
2018-07-29 19:13:57,250  WARN FEMUtils:96 origEndTime=30600.0; newEndTime=1.0
2018-07-29 19:13:57,250  WARN FEMUtils:96 origEndTime=30600.0; newEndTime=1.0
2018-07-29 19:13:57,250  WARN FEMUtils:96 origEndTime=30600.0; newEndTime=1.0
2018-07-29 19:13:57,251  WARN FEMUtils:96 origEndTime=30600.0; newEndTime=1.0
2018-07-29 19:13:57,251  WARN FEMUtils:96 origEndTime=30600.0; newEndTime=1.0
2018-07-29 19:13:57,251  WARN FEMUtils:96 origEndTime=30600.0; newEndTime=1.0
2018-07-29 19:13:57,251  WARN FEMUtils:96 origEndTime=30600.0; newEndTime=1.0
2018-07-29 19:13:57,251  WARN FEMUtils:96 origEndTime=30600.0; newEndTime=1.0
2018-07-29 19:13:57,251  WARN FEMUtils:96 origEndTime=30600.0; newEndTime=1.0
2018-07-29 19:13:57,251  WARN FEMUtils:96 origEndTime=30600.0; newEndTime=1.0
2018-07-29 19:13:57,251  WARN FEMUtils:96 origEndTime=30600.0; newEndTime=1.0
2018-07-29 19:13:57,251  WARN FEMUtils:96 origEndTime=30600.0; newEndTime=1.0
2018-07-29 19:13:57,251  WARN FEMUtils:96 origEndTime=30600.0; newEndTime=1.0
2018-07-29 19:13:57,251  WARN FEMUtils:96 origEndTime=30600.0; newEndTime=1.0
2018-07-29 19:13:57,251  WARN FEMUtils:96 origEndTime=30600.0; newEndTime=1.0
2018-07-29 19:13:57,252  WARN FEMUtils:96 origEndTime=30600.0; newEndTime=1.0
2018-07-29 19:13:57,252  WARN FEMUtils:96 origEndTime=30600.0; newEndTime=1.0
2018-07-29 19:13:57,252  WARN FEMUtils:96 origEndTime=30600.0; newEndTime=1.0
2018-07-29 19:13:57,252  WARN FEMUtils:96 origEndTime=30600.0; newEndTime=1.0
2018-07-29 19:13:57,252  WARN FEMUtils:96 origEndTime=30600.0; newEndTime=1.0
2018-07-29 19:13:57,252  WARN FEMUtils:96 origEndTime=30600.0; newEndTime=1.0
2018-07-29 19:13:57,252  WARN FEMUtils:96 origEndTime=30600.0; newEndTime=1.0
2018-07-29 19:13:57,252  WARN FEMUtils:96 origEndTime=30600.0; newEndTime=1.0
2018-07-29 19:13:57,252  WARN FEMUtils:96 origEndTime=30600.0; newEndTime=1.0
2018-07-29 19:13:57,252  WARN FEMUtils:96 origEndTime=30600.0; newEndTime=1.0
2018-07-29 19:13:57,252  WARN FEMUtils:96 origEndTime=30600.0; newEndTime=1.0
2018-07-29 19:13:57,252  WARN FEMUtils:96 origEndTime=30600.0; newEndTime=1.0
2018-07-29 19:13:57,253  WARN FEMUtils:96 origEndTime=30600.0; newEndTime=1.0
2018-07-29 19:13:57,253  WARN FEMUtils:96 origEndTime=30600.0; newEndTime=1.0
2018-07-29 19:13:57,253  WARN FEMUtils:96 origEndTime=30600.0; newEndTime=1.0
2018-07-29 19:13:57,253  WARN FEMUtils:96 origEndTime=30600.0; newEndTime=1.0
2018-07-29 19:13:57,253  WARN FEMUtils:96 origEndTime=30600.0; newEndTime=1.0
2018-07-29 19:13:57,253  WARN FEMUtils:96 origEndTime=30600.0; newEndTime=1.0
2018-07-29 19:13:57,253  WARN FEMUtils:96 origEndTime=30600.0; newEndTime=1.0
2018-07-29 19:13:57,253  WARN FEMUtils:96 origEndTime=30600.0; newEndTime=1.0
2018-07-29 19:13:57,253  WARN FEMUtils:96 origEndTime=30600.0; newEndTime=1.0
2018-07-29 19:13:57,253  WARN FEMUtils:96 origEndTime=30600.0; newEndTime=1.0
2018-07-29 19:13:57,253  WARN FEMUtils:96 origEndTime=30600.0; newEndTime=1.0
2018-07-29 19:13:57,253  WARN FEMUtils:96 origEndTime=30600.0; newEndTime=1.0
2018-07-29 19:13:57,254  WARN FEMUtils:96 origEndTime=30600.0; newEndTime=1.0
2018-07-29 19:13:57,254  WARN FEMUtils:96 origEndTime=30600.0; newEndTime=1.0
2018-07-29 19:13:57,254  WARN FEMUtils:96 origEndTime=30600.0; newEndTime=1.0
2018-07-29 19:13:57,254  WARN FEMUtils:96 origEndTime=30600.0; newEndTime=1.0
2018-07-29 19:13:57,254  WARN FEMUtils:96 origEndTime=30600.0; newEndTime=1.0
2018-07-29 19:13:57,254  WARN FEMUtils:96 origEndTime=30600.0; newEndTime=1.0
2018-07-29 19:13:57,254  WARN FEMUtils:96 origEndTime=30600.0; newEndTime=1.0
2018-07-29 19:13:57,254  WARN FEMUtils:96 origEndTime=30600.0; newEndTime=1.0
2018-07-29 19:13:57,254  WARN FEMUtils:96 origEndTime=30600.0; newEndTime=1.0
2018-07-29 19:13:57,254  WARN FEMUtils:96 origEndTime=30600.0; newEndTime=1.0
2018-07-29 19:13:57,254  WARN FEMUtils:96 origEndTime=30600.0; newEndTime=1.0
2018-07-29 19:13:57,254  WARN FEMUtils:96 origEndTime=30600.0; newEndTime=1.0
2018-07-29 19:13:57,255  WARN FEMUtils:96 origEndTime=30600.0; newEndTime=1.0
2018-07-29 19:13:57,255  WARN FEMUtils:96 origEndTime=30600.0; newEndTime=1.0
2018-07-29 19:13:57,255  WARN FEMUtils:96 origEndTime=51900.0; newEndTime=1.0
2018-07-29 19:13:57,255  WARN FEMUtils:96 origEndTime=51900.0; newEndTime=1.0
2018-07-29 19:13:57,255  WARN FEMUtils:96 origEndTime=51900.0; newEndTime=1.0
2018-07-29 19:13:57,255  WARN FEMUtils:96 origEndTime=51900.0; newEndTime=1.0
2018-07-29 19:13:57,255  WARN FEMUtils:96 origEndTime=51900.0; newEndTime=1.0
2018-07-29 19:13:57,255  WARN FEMUtils:96 origEndTime=51900.0; newEndTime=1.0
2018-07-29 19:13:57,255  WARN FEMUtils:96 origEndTime=51900.0; newEndTime=1.0
2018-07-29 19:13:57,255  WARN FEMUtils:96 origEndTime=51900.0; newEndTime=1.0
2018-07-29 19:13:57,255  WARN FEMUtils:96 origEndTime=51900.0; newEndTime=1.0
2018-07-29 19:13:57,255  WARN FEMUtils:96 origEndTime=51900.0; newEndTime=1.0
2018-07-29 19:13:57,255  WARN FEMUtils:96 origEndTime=51900.0; newEndTime=1.0
2018-07-29 19:13:57,256  WARN FEMUtils:96 origEndTime=51900.0; newEndTime=1.0
2018-07-29 19:13:57,256  WARN FEMUtils:96 origEndTime=51900.0; newEndTime=1.0
2018-07-29 19:13:57,256  WARN FEMUtils:96 origEndTime=51900.0; newEndTime=1.0
2018-07-29 19:13:57,256  WARN FEMUtils:96 origEndTime=51900.0; newEndTime=1.0
2018-07-29 19:13:57,256  WARN FEMUtils:96 origEndTime=51900.0; newEndTime=1.0
2018-07-29 19:13:57,256  WARN FEMUtils:96 origEndTime=51900.0; newEndTime=1.0
2018-07-29 19:13:57,256  WARN FEMUtils:96 origEndTime=51900.0; newEndTime=1.0
2018-07-29 19:13:57,256  WARN FEMUtils:96 origEndTime=51900.0; newEndTime=1.0
2018-07-29 19:13:57,256  WARN FEMUtils:96 origEndTime=51900.0; newEndTime=1.0
2018-07-29 19:13:57,256  WARN FEMUtils:96 origEndTime=51900.0; newEndTime=1.0
2018-07-29 19:13:57,257  WARN FEMUtils:96 origEndTime=51900.0; newEndTime=1.0
2018-07-29 19:13:57,257  WARN FEMUtils:96 origEndTime=51900.0; newEndTime=1.0
2018-07-29 19:13:57,257  WARN FEMUtils:96 origEndTime=51900.0; newEndTime=1.0
2018-07-29 19:13:57,257  WARN FEMUtils:96 origEndTime=51900.0; newEndTime=1.0
2018-07-29 19:13:57,257  WARN FEMUtils:96 origEndTime=51900.0; newEndTime=1.0
2018-07-29 19:13:57,257  WARN FEMUtils:96 origEndTime=51900.0; newEndTime=1.0
2018-07-29 19:13:57,257  WARN FEMUtils:96 origEndTime=51900.0; newEndTime=1.0
2018-07-29 19:13:57,257  WARN FEMUtils:96 origEndTime=51900.0; newEndTime=1.0
2018-07-29 19:13:57,257  WARN FEMUtils:96 origEndTime=51900.0; newEndTime=1.0
2018-07-29 19:13:57,257  WARN FEMUtils:96 origEndTime=51900.0; newEndTime=1.0
2018-07-29 19:13:57,257  WARN FEMUtils:96 origEndTime=51900.0; newEndTime=1.0
2018-07-29 19:13:57,258  WARN FEMUtils:96 origEndTime=51900.0; newEndTime=1.0
2018-07-29 19:13:57,258  WARN FEMUtils:96 origEndTime=51900.0; newEndTime=1.0
2018-07-29 19:13:57,258  WARN FEMUtils:96 origEndTime=51900.0; newEndTime=1.0
2018-07-29 19:13:57,258  WARN FEMUtils:96 origEndTime=51900.0; newEndTime=1.0
2018-07-29 19:13:57,258  WARN FEMUtils:96 origEndTime=51900.0; newEndTime=1.0
2018-07-29 19:13:57,258  WARN FEMUtils:96 origEndTime=51900.0; newEndTime=1.0
2018-07-29 19:13:57,258  WARN FEMUtils:96 origEndTime=51900.0; newEndTime=1.0
2018-07-29 19:13:57,258  WARN FEMUtils:96 origEndTime=51900.0; newEndTime=1.0
2018-07-29 19:13:57,258  WARN FEMUtils:96 origEndTime=51900.0; newEndTime=1.0
2018-07-29 19:13:57,258  WARN FEMUtils:96 origEndTime=51900.0; newEndTime=1.0
2018-07-29 19:13:57,258  WARN FEMUtils:96 origEndTime=51900.0; newEndTime=1.0
2018-07-29 19:13:57,258  WARN FEMUtils:96 origEndTime=51900.0; newEndTime=1.0
2018-07-29 19:13:57,259  WARN FEMUtils:96 origEndTime=51900.0; newEndTime=1.0
2018-07-29 19:13:57,259  WARN FEMUtils:96 origEndTime=51900.0; newEndTime=1.0
2018-07-29 19:13:57,259  WARN FEMUtils:96 origEndTime=51900.0; newEndTime=1.0
2018-07-29 19:13:57,259  WARN FEMUtils:96 origEndTime=51900.0; newEndTime=1.0
2018-07-29 19:13:57,259  WARN FEMUtils:96 origEndTime=51900.0; newEndTime=1.0
2018-07-29 19:13:57,259  WARN FEMUtils:96 origEndTime=51900.0; newEndTime=1.0
2018-07-29 19:13:57,259  WARN FEMUtils:96 origEndTime=51900.0; newEndTime=1.0
2018-07-29 19:13:57,259  WARN FEMUtils:96 origEndTime=51900.0; newEndTime=1.0
2018-07-29 19:13:57,259  WARN FEMUtils:96 origEndTime=51900.0; newEndTime=1.0
2018-07-29 19:13:57,259  WARN FEMUtils:96 origEndTime=51900.0; newEndTime=1.0
2018-07-29 19:13:57,259  WARN FEMUtils:96 origEndTime=51900.0; newEndTime=1.0
2018-07-29 19:13:57,259  WARN FEMUtils:96 origEndTime=51900.0; newEndTime=1.0
2018-07-29 19:13:57,260  WARN FEMUtils:96 origEndTime=51900.0; newEndTime=1.0
2018-07-29 19:13:57,260  WARN FEMUtils:96 origEndTime=51900.0; newEndTime=1.0
2018-07-29 19:13:57,260  WARN FEMUtils:96 origEndTime=51900.0; newEndTime=1.0
2018-07-29 19:13:57,260  WARN FEMUtils:96 origEndTime=51900.0; newEndTime=1.0
2018-07-29 19:13:57,260  WARN FEMUtils:96 origEndTime=51900.0; newEndTime=1.0
2018-07-29 19:13:57,260  WARN FEMUtils:96 origEndTime=51900.0; newEndTime=1.0
2018-07-29 19:13:57,260  WARN FEMUtils:96 origEndTime=51900.0; newEndTime=1.0
2018-07-29 19:13:57,260  WARN FEMUtils:96 origEndTime=51900.0; newEndTime=1.0
2018-07-29 19:13:57,260  WARN FEMUtils:96 origEndTime=51900.0; newEndTime=1.0
2018-07-29 19:13:57,261  WARN FEMUtils:96 origEndTime=51900.0; newEndTime=1.0
2018-07-29 19:13:57,261  WARN FEMUtils:96 origEndTime=51900.0; newEndTime=1.0
2018-07-29 19:13:57,261  WARN FEMUtils:96 origEndTime=51900.0; newEndTime=1.0
2018-07-29 19:13:57,261  WARN FEMUtils:96 origEndTime=51900.0; newEndTime=1.0
2018-07-29 19:13:57,261  WARN FEMUtils:96 origEndTime=51900.0; newEndTime=1.0
2018-07-29 19:13:57,261  WARN FEMUtils:96 origEndTime=51900.0; newEndTime=1.0
2018-07-29 19:13:57,261  WARN FEMUtils:96 origEndTime=51900.0; newEndTime=1.0
2018-07-29 19:13:57,261  WARN FEMUtils:96 origEndTime=51900.0; newEndTime=1.0
2018-07-29 19:13:57,261  WARN FEMUtils:96 origEndTime=51900.0; newEndTime=1.0
2018-07-29 19:13:57,261  WARN FEMUtils:96 origEndTime=51900.0; newEndTime=1.0
2018-07-29 19:13:57,262  WARN FEMUtils:96 origEndTime=51900.0; newEndTime=1.0
2018-07-29 19:13:57,262  WARN FEMUtils:96 origEndTime=51900.0; newEndTime=1.0
2018-07-29 19:13:57,262  WARN FEMUtils:96 origEndTime=51900.0; newEndTime=1.0
2018-07-29 19:13:57,262  WARN FEMUtils:96 origEndTime=51900.0; newEndTime=1.0
2018-07-29 19:13:57,262  WARN FEMUtils:96 origEndTime=51900.0; newEndTime=1.0
2018-07-29 19:13:57,262  WARN FEMUtils:96 origEndTime=51900.0; newEndTime=1.0
2018-07-29 19:13:57,262  WARN FEMUtils:96 origEndTime=51900.0; newEndTime=1.0
2018-07-29 19:13:57,262  WARN FEMUtils:96 origEndTime=51900.0; newEndTime=1.0
2018-07-29 19:13:57,262  WARN FEMUtils:96 origEndTime=51900.0; newEndTime=1.0
2018-07-29 19:13:57,262  WARN FEMUtils:96 origEndTime=51900.0; newEndTime=1.0
2018-07-29 19:13:57,262  WARN FEMUtils:96 origEndTime=51900.0; newEndTime=1.0
2018-07-29 19:13:57,263  WARN FEMUtils:96 origEndTime=51900.0; newEndTime=1.0
2018-07-29 19:13:57,263  WARN FEMUtils:96 origEndTime=51900.0; newEndTime=1.0
2018-07-29 19:13:57,263  WARN FEMUtils:96 origEndTime=51900.0; newEndTime=1.0
2018-07-29 19:13:57,263  WARN FEMUtils:96 origEndTime=51900.0; newEndTime=1.0
2018-07-29 19:13:57,263  WARN FEMUtils:96 origEndTime=51900.0; newEndTime=1.0
2018-07-29 19:13:57,263  WARN FEMUtils:96 origEndTime=44400.0; newEndTime=1.0
2018-07-29 19:13:57,263  WARN FEMUtils:96 origEndTime=44400.0; newEndTime=1.0
2018-07-29 19:13:57,263  WARN FEMUtils:96 origEndTime=44400.0; newEndTime=1.0
2018-07-29 19:13:57,263  WARN FEMUtils:96 origEndTime=44400.0; newEndTime=1.0
2018-07-29 19:13:57,263  WARN FEMUtils:96 origEndTime=44400.0; newEndTime=1.0
2018-07-29 19:13:57,263  WARN FEMUtils:96 origEndTime=44400.0; newEndTime=1.0
2018-07-29 19:13:57,263  WARN FEMUtils:96 origEndTime=44400.0; newEndTime=1.0
2018-07-29 19:13:57,264  WARN FEMUtils:96 origEndTime=44400.0; newEndTime=1.0
2018-07-29 19:13:57,264  WARN FEMUtils:96 origEndTime=44400.0; newEndTime=1.0
2018-07-29 19:13:57,264  WARN FEMUtils:96 origEndTime=44400.0; newEndTime=1.0
2018-07-29 19:13:57,264  WARN FEMUtils:96 origEndTime=44400.0; newEndTime=1.0
2018-07-29 19:13:57,264  WARN FEMUtils:96 origEndTime=44400.0; newEndTime=1.0
2018-07-29 19:13:57,264  WARN FEMUtils:96 origEndTime=44400.0; newEndTime=1.0
2018-07-29 19:13:57,264  WARN FEMUtils:96 origEndTime=44400.0; newEndTime=1.0
2018-07-29 19:13:57,264  WARN FEMUtils:96 origEndTime=44400.0; newEndTime=1.0
2018-07-29 19:13:57,264  WARN FEMUtils:96 origEndTime=44400.0; newEndTime=1.0
2018-07-29 19:13:57,264  WARN FEMUtils:96 origEndTime=44400.0; newEndTime=1.0
2018-07-29 19:13:57,264  WARN FEMUtils:96 origEndTime=44400.0; newEndTime=1.0
2018-07-29 19:13:57,264  WARN FEMUtils:96 origEndTime=44400.0; newEndTime=1.0
2018-07-29 19:13:57,265  WARN FEMUtils:96 origEndTime=44400.0; newEndTime=1.0
2018-07-29 19:13:57,265  WARN FEMUtils:96 origEndTime=44400.0; newEndTime=1.0
2018-07-29 19:13:57,265  WARN FEMUtils:96 origEndTime=44400.0; newEndTime=1.0
2018-07-29 19:13:57,265  WARN FEMUtils:96 origEndTime=44400.0; newEndTime=1.0
2018-07-29 19:13:57,265  WARN FEMUtils:96 origEndTime=44400.0; newEndTime=1.0
2018-07-29 19:13:57,265  WARN FEMUtils:96 origEndTime=44400.0; newEndTime=1.0
2018-07-29 19:13:57,265  WARN FEMUtils:96 origEndTime=44400.0; newEndTime=1.0
2018-07-29 19:13:57,265  WARN FEMUtils:96 origEndTime=44400.0; newEndTime=1.0
2018-07-29 19:13:57,265  WARN FEMUtils:96 origEndTime=44400.0; newEndTime=1.0
2018-07-29 19:13:57,265  WARN FEMUtils:96 origEndTime=44400.0; newEndTime=1.0
2018-07-29 19:13:57,265  WARN FEMUtils:96 origEndTime=44400.0; newEndTime=1.0
2018-07-29 19:13:57,265  WARN FEMUtils:96 origEndTime=44400.0; newEndTime=1.0
2018-07-29 19:13:57,266  WARN FEMUtils:96 origEndTime=44400.0; newEndTime=1.0
2018-07-29 19:13:57,266  WARN FEMUtils:96 origEndTime=44400.0; newEndTime=1.0
2018-07-29 19:13:57,266  WARN FEMUtils:96 origEndTime=44400.0; newEndTime=1.0
2018-07-29 19:13:57,266  WARN FEMUtils:96 origEndTime=44400.0; newEndTime=1.0
2018-07-29 19:13:57,266  WARN FEMUtils:96 origEndTime=44400.0; newEndTime=1.0
2018-07-29 19:13:57,266  WARN FEMUtils:96 origEndTime=44400.0; newEndTime=1.0
2018-07-29 19:13:57,266  WARN FEMUtils:96 origEndTime=44400.0; newEndTime=1.0
2018-07-29 19:13:57,266  WARN FEMUtils:96 origEndTime=44400.0; newEndTime=1.0
2018-07-29 19:13:57,266  WARN FEMUtils:96 origEndTime=44400.0; newEndTime=1.0
2018-07-29 19:13:57,266  WARN FEMUtils:96 origEndTime=44400.0; newEndTime=1.0
2018-07-29 19:13:57,266  WARN FEMUtils:96 origEndTime=44400.0; newEndTime=1.0
2018-07-29 19:13:57,266  WARN FEMUtils:96 origEndTime=44400.0; newEndTime=1.0
2018-07-29 19:13:57,266  WARN FEMUtils:96 origEndTime=44400.0; newEndTime=1.0
2018-07-29 19:13:57,267  WARN FEMUtils:96 origEndTime=44400.0; newEndTime=1.0
2018-07-29 19:13:57,267  WARN FEMUtils:96 origEndTime=44400.0; newEndTime=1.0
2018-07-29 19:13:57,267  WARN FEMUtils:96 origEndTime=44400.0; newEndTime=1.0
2018-07-29 19:13:57,267  WARN FEMUtils:96 origEndTime=44400.0; newEndTime=1.0
2018-07-29 19:13:57,267  WARN FEMUtils:96 origEndTime=44400.0; newEndTime=1.0
2018-07-29 19:13:57,267  WARN FEMUtils:96 origEndTime=44400.0; newEndTime=1.0
2018-07-29 19:13:57,267  WARN FEMUtils:96 origEndTime=44400.0; newEndTime=1.0
2018-07-29 19:13:57,267  WARN FEMUtils:96 origEndTime=44400.0; newEndTime=1.0
2018-07-29 19:13:57,267  WARN FEMUtils:96 origEndTime=10500.0; newEndTime=1.0
2018-07-29 19:13:57,267  WARN FEMUtils:96 origEndTime=10500.0; newEndTime=1.0
2018-07-29 19:13:57,267  WARN FEMUtils:96 origEndTime=10500.0; newEndTime=1.0
2018-07-29 19:13:57,267  WARN FEMUtils:96 origEndTime=10500.0; newEndTime=1.0
2018-07-29 19:13:57,268  WARN FEMUtils:96 origEndTime=10500.0; newEndTime=1.0
2018-07-29 19:13:57,268  WARN FEMUtils:96 origEndTime=10500.0; newEndTime=1.0
2018-07-29 19:13:57,268  WARN FEMUtils:96 origEndTime=10500.0; newEndTime=1.0
2018-07-29 19:13:57,268  WARN FEMUtils:96 origEndTime=10500.0; newEndTime=1.0
2018-07-29 19:13:57,268  WARN FEMUtils:96 origEndTime=10500.0; newEndTime=1.0
2018-07-29 19:13:57,268  WARN FEMUtils:96 origEndTime=10500.0; newEndTime=1.0
2018-07-29 19:13:57,268  WARN FEMUtils:96 origEndTime=10500.0; newEndTime=1.0
2018-07-29 19:13:57,268  WARN FEMUtils:96 origEndTime=10500.0; newEndTime=1.0
2018-07-29 19:13:57,268  WARN FEMUtils:96 origEndTime=10500.0; newEndTime=1.0
2018-07-29 19:13:57,268  WARN FEMUtils:96 origEndTime=44400.0; newEndTime=1.0
2018-07-29 19:13:57,268  WARN FEMUtils:96 origEndTime=44400.0; newEndTime=1.0
2018-07-29 19:13:57,268  WARN FEMUtils:96 origEndTime=44400.0; newEndTime=1.0
2018-07-29 19:13:57,268  WARN FEMUtils:96 origEndTime=44400.0; newEndTime=1.0
2018-07-29 19:13:57,269  WARN FEMUtils:96 origEndTime=44400.0; newEndTime=1.0
2018-07-29 19:13:57,269  WARN FEMUtils:96 origEndTime=44400.0; newEndTime=1.0
2018-07-29 19:13:57,269  WARN FEMUtils:96 origEndTime=44400.0; newEndTime=1.0
2018-07-29 19:13:57,269  WARN FEMUtils:96 origEndTime=44400.0; newEndTime=1.0
2018-07-29 19:13:57,269  WARN FEMUtils:96 origEndTime=44400.0; newEndTime=1.0
2018-07-29 19:13:57,269  WARN FEMUtils:96 origEndTime=44400.0; newEndTime=1.0
2018-07-29 19:13:57,269  WARN FEMUtils:96 origEndTime=44400.0; newEndTime=1.0
2018-07-29 19:13:57,269  WARN FEMUtils:96 origEndTime=44400.0; newEndTime=1.0
2018-07-29 19:13:57,269  WARN FEMUtils:96 origEndTime=44400.0; newEndTime=1.0
2018-07-29 19:13:57,269  WARN FEMUtils:96 origEndTime=44400.0; newEndTime=1.0
2018-07-29 19:13:57,269  WARN FEMUtils:96 origEndTime=44400.0; newEndTime=1.0
2018-07-29 19:13:57,269  WARN FEMUtils:96 origEndTime=44400.0; newEndTime=1.0
2018-07-29 19:13:57,270  WARN FEMUtils:96 origEndTime=44400.0; newEndTime=1.0
2018-07-29 19:13:57,270  WARN FEMUtils:96 origEndTime=44400.0; newEndTime=1.0
2018-07-29 19:13:57,270  WARN FEMUtils:96 origEndTime=44400.0; newEndTime=1.0
2018-07-29 19:13:57,270  WARN FEMUtils:96 origEndTime=44400.0; newEndTime=1.0
2018-07-29 19:13:57,270  WARN FEMUtils:96 origEndTime=44400.0; newEndTime=1.0
2018-07-29 19:13:57,270  WARN FEMUtils:96 origEndTime=44400.0; newEndTime=1.0
2018-07-29 19:13:57,270  WARN FEMUtils:96 origEndTime=44400.0; newEndTime=1.0
2018-07-29 19:13:57,270  WARN FEMUtils:96 origEndTime=44400.0; newEndTime=1.0
2018-07-29 19:13:57,270  WARN FEMUtils:96 origEndTime=44400.0; newEndTime=1.0
2018-07-29 19:13:57,270  WARN FEMUtils:96 origEndTime=44400.0; newEndTime=1.0
2018-07-29 19:13:57,270  WARN FEMUtils:96 origEndTime=44400.0; newEndTime=1.0
2018-07-29 19:13:57,270  WARN FEMUtils:96 origEndTime=44400.0; newEndTime=1.0
2018-07-29 19:13:57,270  WARN FEMUtils:96 origEndTime=44400.0; newEndTime=1.0
2018-07-29 19:13:57,271  WARN FEMUtils:96 origEndTime=44400.0; newEndTime=1.0
2018-07-29 19:13:57,271  WARN FEMUtils:96 origEndTime=44400.0; newEndTime=1.0
2018-07-29 19:13:57,271  WARN FEMUtils:96 origEndTime=44400.0; newEndTime=1.0
2018-07-29 19:13:57,271  WARN FEMUtils:96 origEndTime=44400.0; newEndTime=1.0
2018-07-29 19:13:57,271  WARN FEMUtils:96 origEndTime=44400.0; newEndTime=1.0
2018-07-29 19:13:57,271  WARN FEMUtils:96 origEndTime=44400.0; newEndTime=1.0
2018-07-29 19:13:57,271  WARN FEMUtils:96 origEndTime=44400.0; newEndTime=1.0
2018-07-29 19:13:57,271  WARN FEMUtils:96 origEndTime=44400.0; newEndTime=1.0
2018-07-29 19:13:57,271  WARN FEMUtils:96 origEndTime=44400.0; newEndTime=1.0
2018-07-29 19:13:57,271  WARN FEMUtils:96 origEndTime=44400.0; newEndTime=1.0
2018-07-29 19:13:57,271  WARN FEMUtils:96 origEndTime=44400.0; newEndTime=1.0
2018-07-29 19:13:57,271  WARN FEMUtils:96 origEndTime=44400.0; newEndTime=1.0
2018-07-29 19:13:57,272  WARN FEMUtils:96 origEndTime=44400.0; newEndTime=1.0
2018-07-29 19:13:57,272  WARN FEMUtils:96 origEndTime=44400.0; newEndTime=1.0
2018-07-29 19:13:57,272  WARN FEMUtils:96 origEndTime=44400.0; newEndTime=1.0
2018-07-29 19:13:57,272  WARN FEMUtils:96 origEndTime=44400.0; newEndTime=1.0
2018-07-29 19:13:57,272  WARN FEMUtils:96 origEndTime=44400.0; newEndTime=1.0
2018-07-29 19:13:57,272  WARN FEMUtils:96 origEndTime=44400.0; newEndTime=1.0
2018-07-29 19:13:57,272  WARN FEMUtils:96 origEndTime=44400.0; newEndTime=1.0
2018-07-29 19:13:57,272  WARN FEMUtils:96 origEndTime=44400.0; newEndTime=1.0
2018-07-29 19:13:57,272  WARN FEMUtils:96 origEndTime=44400.0; newEndTime=1.0
2018-07-29 19:13:57,272  WARN FEMUtils:96 origEndTime=44400.0; newEndTime=1.0
2018-07-29 19:13:57,272  WARN FEMUtils:96 origEndTime=44400.0; newEndTime=1.0
2018-07-29 19:13:57,273  WARN FEMUtils:96 origEndTime=48300.0; newEndTime=1.0
2018-07-29 19:13:57,273  WARN FEMUtils:96 origEndTime=48300.0; newEndTime=1.0
2018-07-29 19:13:57,273  WARN FEMUtils:96 origEndTime=48300.0; newEndTime=1.0
2018-07-29 19:13:57,273  WARN FEMUtils:96 origEndTime=48300.0; newEndTime=1.0
2018-07-29 19:13:57,273  WARN FEMUtils:96 origEndTime=48300.0; newEndTime=1.0
2018-07-29 19:13:57,273  WARN FEMUtils:96 origEndTime=48300.0; newEndTime=1.0
2018-07-29 19:13:57,273  WARN FEMUtils:96 origEndTime=48300.0; newEndTime=1.0
2018-07-29 19:13:57,273  WARN FEMUtils:96 origEndTime=48300.0; newEndTime=1.0
2018-07-29 19:13:57,273  WARN FEMUtils:96 origEndTime=48300.0; newEndTime=1.0
2018-07-29 19:13:57,273  WARN FEMUtils:96 origEndTime=48300.0; newEndTime=1.0
2018-07-29 19:13:57,273  WARN FEMUtils:96 origEndTime=48300.0; newEndTime=1.0
2018-07-29 19:13:57,273  WARN FEMUtils:96 origEndTime=48300.0; newEndTime=1.0
2018-07-29 19:13:57,273  WARN FEMUtils:96 origEndTime=48300.0; newEndTime=1.0
2018-07-29 19:13:57,274  WARN FEMUtils:96 origEndTime=4500.0; newEndTime=1.0
2018-07-29 19:13:57,274  WARN FEMUtils:96 origEndTime=4500.0; newEndTime=1.0
2018-07-29 19:13:57,274  WARN FEMUtils:96 origEndTime=4500.0; newEndTime=1.0
2018-07-29 19:13:57,274  WARN FEMUtils:96 origEndTime=4500.0; newEndTime=1.0
2018-07-29 19:13:57,274  WARN FEMUtils:96 origEndTime=4500.0; newEndTime=1.0
2018-07-29 19:13:57,274  WARN FEMUtils:96 origEndTime=4500.0; newEndTime=1.0
2018-07-29 19:13:57,274  WARN FEMUtils:96 origEndTime=4500.0; newEndTime=1.0
2018-07-29 19:13:57,274  WARN FEMUtils:96 origEndTime=4500.0; newEndTime=1.0
2018-07-29 19:13:57,274  WARN FEMUtils:96 origEndTime=4500.0; newEndTime=1.0
2018-07-29 19:13:57,274  WARN FEMUtils:96 origEndTime=4500.0; newEndTime=1.0
2018-07-29 19:13:57,274  WARN FEMUtils:96 origEndTime=4500.0; newEndTime=1.0
2018-07-29 19:13:57,274  WARN FEMUtils:96 origEndTime=4500.0; newEndTime=1.0
2018-07-29 19:13:57,274  WARN FEMUtils:96 origEndTime=4500.0; newEndTime=1.0
2018-07-29 19:13:57,275  WARN FEMUtils:96 origEndTime=59400.0; newEndTime=1.0
2018-07-29 19:13:57,275  WARN FEMUtils:96 origEndTime=59400.0; newEndTime=1.0
2018-07-29 19:13:57,275  WARN FEMUtils:96 origEndTime=59400.0; newEndTime=1.0
2018-07-29 19:13:57,275  WARN FEMUtils:96 origEndTime=59400.0; newEndTime=1.0
2018-07-29 19:13:57,275  WARN FEMUtils:96 origEndTime=59400.0; newEndTime=1.0
2018-07-29 19:13:57,275  WARN FEMUtils:96 origEndTime=59400.0; newEndTime=1.0
2018-07-29 19:13:57,275  WARN FEMUtils:96 origEndTime=59400.0; newEndTime=1.0
2018-07-29 19:13:57,275  WARN FEMUtils:96 origEndTime=59400.0; newEndTime=1.0
2018-07-29 19:13:57,275  WARN FEMUtils:96 origEndTime=59400.0; newEndTime=1.0
2018-07-29 19:13:57,275  WARN FEMUtils:96 origEndTime=59400.0; newEndTime=1.0
2018-07-29 19:13:57,275  WARN FEMUtils:96 origEndTime=59400.0; newEndTime=1.0
2018-07-29 19:13:57,275  WARN FEMUtils:96 origEndTime=59400.0; newEndTime=1.0
2018-07-29 19:13:57,275  WARN FEMUtils:96 origEndTime=59400.0; newEndTime=1.0
2018-07-29 19:13:57,276  WARN FEMUtils:96 origEndTime=59400.0; newEndTime=1.0
2018-07-29 19:13:57,276  WARN FEMUtils:96 origEndTime=59400.0; newEndTime=1.0
2018-07-29 19:13:57,276  WARN FEMUtils:96 origEndTime=59400.0; newEndTime=1.0
2018-07-29 19:13:57,276  WARN FEMUtils:96 origEndTime=59400.0; newEndTime=1.0
2018-07-29 19:13:57,276  WARN FEMUtils:96 origEndTime=59400.0; newEndTime=1.0
2018-07-29 19:13:57,276  WARN FEMUtils:96 origEndTime=59400.0; newEndTime=1.0
2018-07-29 19:13:57,276  WARN FEMUtils:96 origEndTime=59400.0; newEndTime=1.0
2018-07-29 19:13:57,276  WARN FEMUtils:96 origEndTime=59400.0; newEndTime=1.0
2018-07-29 19:13:57,276  WARN FEMUtils:96 origEndTime=59400.0; newEndTime=1.0
2018-07-29 19:13:57,276  WARN FEMUtils:96 origEndTime=59400.0; newEndTime=1.0
2018-07-29 19:13:57,276  WARN FEMUtils:96 origEndTime=59400.0; newEndTime=1.0
2018-07-29 19:13:57,276  WARN FEMUtils:96 origEndTime=59400.0; newEndTime=1.0
2018-07-29 19:13:57,276  WARN FEMUtils:96 origEndTime=59400.0; newEndTime=1.0
2018-07-29 19:13:57,277  WARN FEMUtils:96 origEndTime=59400.0; newEndTime=1.0
2018-07-29 19:13:57,277  WARN FEMUtils:96 origEndTime=59400.0; newEndTime=1.0
2018-07-29 19:13:57,277  WARN FEMUtils:96 origEndTime=59400.0; newEndTime=1.0
2018-07-29 19:13:57,277  WARN FEMUtils:96 origEndTime=59400.0; newEndTime=1.0
2018-07-29 19:13:57,277  WARN FEMUtils:96 origEndTime=59400.0; newEndTime=1.0
2018-07-29 19:13:57,277  WARN FEMUtils:96 origEndTime=59400.0; newEndTime=1.0
2018-07-29 19:13:57,277  WARN FEMUtils:96 origEndTime=59400.0; newEndTime=1.0
2018-07-29 19:13:57,277  WARN FEMUtils:96 origEndTime=59400.0; newEndTime=1.0
2018-07-29 19:13:57,277  WARN FEMUtils:96 origEndTime=59400.0; newEndTime=1.0
2018-07-29 19:13:57,277  WARN FEMUtils:96 origEndTime=59400.0; newEndTime=1.0
2018-07-29 19:13:57,277  WARN FEMUtils:96 origEndTime=59400.0; newEndTime=1.0
2018-07-29 19:13:57,277  WARN FEMUtils:96 origEndTime=59400.0; newEndTime=1.0
2018-07-29 19:13:57,277  WARN FEMUtils:96 origEndTime=59400.0; newEndTime=1.0
2018-07-29 19:13:57,278  WARN FEMUtils:96 origEndTime=36600.0; newEndTime=1.0
2018-07-29 19:13:57,278  WARN FEMUtils:96 origEndTime=36600.0; newEndTime=1.0
2018-07-29 19:13:57,278  WARN FEMUtils:96 origEndTime=36600.0; newEndTime=1.0
2018-07-29 19:13:57,278  WARN FEMUtils:96 origEndTime=36600.0; newEndTime=1.0
2018-07-29 19:13:57,278  WARN FEMUtils:96 origEndTime=36600.0; newEndTime=1.0
2018-07-29 19:13:57,278  WARN FEMUtils:96 origEndTime=36600.0; newEndTime=1.0
2018-07-29 19:13:57,278  WARN FEMUtils:96 origEndTime=36600.0; newEndTime=1.0
2018-07-29 19:13:57,278  WARN FEMUtils:96 origEndTime=36600.0; newEndTime=1.0
2018-07-29 19:13:57,278  WARN FEMUtils:96 origEndTime=36600.0; newEndTime=1.0
2018-07-29 19:13:57,278  WARN FEMUtils:96 origEndTime=36600.0; newEndTime=1.0
2018-07-29 19:13:57,278  WARN FEMUtils:96 origEndTime=36600.0; newEndTime=1.0
2018-07-29 19:13:57,278  WARN FEMUtils:96 origEndTime=36600.0; newEndTime=1.0
2018-07-29 19:13:57,278  WARN FEMUtils:96 origEndTime=36600.0; newEndTime=1.0
2018-07-29 19:13:57,278  WARN FEMUtils:96 origEndTime=63900.0; newEndTime=1.0
2018-07-29 19:13:57,279  WARN FEMUtils:96 origEndTime=63900.0; newEndTime=1.0
2018-07-29 19:13:57,279  WARN FEMUtils:96 origEndTime=63900.0; newEndTime=1.0
2018-07-29 19:13:57,279  WARN FEMUtils:96 origEndTime=63900.0; newEndTime=1.0
2018-07-29 19:13:57,279  WARN FEMUtils:96 origEndTime=63900.0; newEndTime=1.0
2018-07-29 19:13:57,279  WARN FEMUtils:96 origEndTime=63900.0; newEndTime=1.0
2018-07-29 19:13:57,279  WARN FEMUtils:96 origEndTime=63900.0; newEndTime=1.0
2018-07-29 19:13:57,279  WARN FEMUtils:96 origEndTime=63900.0; newEndTime=1.0
2018-07-29 19:13:57,279  WARN FEMUtils:96 origEndTime=63900.0; newEndTime=1.0
2018-07-29 19:13:57,279  WARN FEMUtils:96 origEndTime=63900.0; newEndTime=1.0
2018-07-29 19:13:57,279  WARN FEMUtils:96 origEndTime=63900.0; newEndTime=1.0
2018-07-29 19:13:57,279  WARN FEMUtils:96 origEndTime=63900.0; newEndTime=1.0
2018-07-29 19:13:57,279  WARN FEMUtils:96 origEndTime=63900.0; newEndTime=1.0
2018-07-29 19:13:57,279  WARN FEMUtils:96 origEndTime=6600.0; newEndTime=1.0
2018-07-29 19:13:57,280  WARN FEMUtils:96 origEndTime=6600.0; newEndTime=1.0
2018-07-29 19:13:57,280  WARN FEMUtils:96 origEndTime=6600.0; newEndTime=1.0
2018-07-29 19:13:57,280  WARN FEMUtils:96 origEndTime=6600.0; newEndTime=1.0
2018-07-29 19:13:57,280  WARN FEMUtils:96 origEndTime=6600.0; newEndTime=1.0
2018-07-29 19:13:57,280  WARN FEMUtils:96 origEndTime=6600.0; newEndTime=1.0
2018-07-29 19:13:57,280  WARN FEMUtils:96 origEndTime=6600.0; newEndTime=1.0
2018-07-29 19:13:57,280  WARN FEMUtils:96 origEndTime=6600.0; newEndTime=1.0
2018-07-29 19:13:57,280  WARN FEMUtils:96 origEndTime=6600.0; newEndTime=1.0
2018-07-29 19:13:57,280  WARN FEMUtils:96 origEndTime=6600.0; newEndTime=1.0
2018-07-29 19:13:57,280  WARN FEMUtils:96 origEndTime=6600.0; newEndTime=1.0
2018-07-29 19:13:57,280  WARN FEMUtils:96 origEndTime=6600.0; newEndTime=1.0
2018-07-29 19:13:57,280  WARN FEMUtils:96 origEndTime=6600.0; newEndTime=1.0
2018-07-29 19:13:57,280  WARN FEMUtils:96 origEndTime=6600.0; newEndTime=1.0
2018-07-29 19:13:57,280  WARN FEMUtils:96 origEndTime=6600.0; newEndTime=1.0
2018-07-29 19:13:57,281  WARN FEMUtils:96 origEndTime=6600.0; newEndTime=1.0
2018-07-29 19:13:57,281  WARN FEMUtils:96 origEndTime=6600.0; newEndTime=1.0
2018-07-29 19:13:57,281  WARN FEMUtils:96 origEndTime=6600.0; newEndTime=1.0
2018-07-29 19:13:57,281  WARN FEMUtils:96 origEndTime=6600.0; newEndTime=1.0
2018-07-29 19:13:57,281  WARN FEMUtils:96 origEndTime=6600.0; newEndTime=1.0
2018-07-29 19:13:57,281  WARN FEMUtils:96 origEndTime=6600.0; newEndTime=1.0
2018-07-29 19:13:57,281  WARN FEMUtils:96 origEndTime=6600.0; newEndTime=1.0
2018-07-29 19:13:57,281  WARN FEMUtils:96 origEndTime=6600.0; newEndTime=1.0
2018-07-29 19:13:57,281  WARN FEMUtils:96 origEndTime=6600.0; newEndTime=1.0
2018-07-29 19:13:57,281  WARN FEMUtils:96 origEndTime=6600.0; newEndTime=1.0
2018-07-29 19:13:57,281  WARN FEMUtils:96 origEndTime=6600.0; newEndTime=1.0
2018-07-29 19:13:57,281  WARN FEMUtils:96 origEndTime=6600.0; newEndTime=1.0
2018-07-29 19:13:57,281  WARN FEMUtils:96 origEndTime=6600.0; newEndTime=1.0
2018-07-29 19:13:57,282  WARN FEMUtils:96 origEndTime=6600.0; newEndTime=1.0
2018-07-29 19:13:57,282  WARN FEMUtils:96 origEndTime=6600.0; newEndTime=1.0
2018-07-29 19:13:57,282  WARN FEMUtils:96 origEndTime=6600.0; newEndTime=1.0
2018-07-29 19:13:57,282  WARN FEMUtils:96 origEndTime=6600.0; newEndTime=1.0
2018-07-29 19:13:57,282  WARN FEMUtils:96 origEndTime=6600.0; newEndTime=1.0
2018-07-29 19:13:57,282  WARN FEMUtils:96 origEndTime=6600.0; newEndTime=1.0
2018-07-29 19:13:57,282  WARN FEMUtils:96 origEndTime=6600.0; newEndTime=1.0
2018-07-29 19:13:57,282  WARN FEMUtils:96 origEndTime=6600.0; newEndTime=1.0
2018-07-29 19:13:57,282  WARN FEMUtils:96 origEndTime=6600.0; newEndTime=1.0
2018-07-29 19:13:57,282  WARN FEMUtils:96 origEndTime=6600.0; newEndTime=1.0
2018-07-29 19:13:57,282  WARN FEMUtils:96 origEndTime=6600.0; newEndTime=1.0
2018-07-29 19:13:57,282  WARN FEMUtils:96 origEndTime=6600.0; newEndTime=1.0
2018-07-29 19:13:57,282  WARN FEMUtils:96 origEndTime=6600.0; newEndTime=1.0
2018-07-29 19:13:57,282  WARN FEMUtils:96 origEndTime=6600.0; newEndTime=1.0
2018-07-29 19:13:57,283  WARN FEMUtils:96 origEndTime=6600.0; newEndTime=1.0
2018-07-29 19:13:57,283  WARN FEMUtils:96 origEndTime=6600.0; newEndTime=1.0
2018-07-29 19:13:57,283  WARN FEMUtils:96 origEndTime=6600.0; newEndTime=1.0
2018-07-29 19:13:57,283  WARN FEMUtils:96 origEndTime=6600.0; newEndTime=1.0
2018-07-29 19:13:57,283  WARN FEMUtils:96 origEndTime=6600.0; newEndTime=1.0
2018-07-29 19:13:57,283  WARN FEMUtils:96 origEndTime=6600.0; newEndTime=1.0
2018-07-29 19:13:57,283  WARN FEMUtils:96 origEndTime=6600.0; newEndTime=1.0
2018-07-29 19:13:57,284  WARN FEMUtils:96 origEndTime=6600.0; newEndTime=1.0
2018-07-29 19:13:57,284  WARN FEMUtils:96 origEndTime=6600.0; newEndTime=1.0
2018-07-29 19:13:57,284  WARN FEMUtils:96 origEndTime=6600.0; newEndTime=1.0
2018-07-29 19:13:57,284  WARN FEMUtils:96 origEndTime=6600.0; newEndTime=1.0
2018-07-29 19:13:57,284  WARN FEMUtils:96 origEndTime=6600.0; newEndTime=1.0
2018-07-29 19:13:57,284  WARN FEMUtils:96 origEndTime=6600.0; newEndTime=1.0
2018-07-29 19:13:57,284  WARN FEMUtils:96 origEndTime=6600.0; newEndTime=1.0
2018-07-29 19:13:57,284  WARN FEMUtils:96 origEndTime=6600.0; newEndTime=1.0
2018-07-29 19:13:57,284  WARN FEMUtils:96 origEndTime=6600.0; newEndTime=1.0
2018-07-29 19:13:57,284  WARN FEMUtils:96 origEndTime=6600.0; newEndTime=1.0
2018-07-29 19:13:57,284  WARN FEMUtils:96 origEndTime=6600.0; newEndTime=1.0
2018-07-29 19:13:57,284  WARN FEMUtils:96 origEndTime=6600.0; newEndTime=1.0
2018-07-29 19:13:57,284  WARN FEMUtils:96 origEndTime=6600.0; newEndTime=1.0
2018-07-29 19:13:57,285  WARN FEMUtils:96 origEndTime=6600.0; newEndTime=1.0
2018-07-29 19:13:57,285  WARN FEMUtils:96 origEndTime=6600.0; newEndTime=1.0
2018-07-29 19:13:57,285  WARN FEMUtils:96 origEndTime=6600.0; newEndTime=1.0
2018-07-29 19:13:57,285  WARN FEMUtils:96 origEndTime=6600.0; newEndTime=1.0
2018-07-29 19:13:57,285  WARN FEMUtils:96 origEndTime=6600.0; newEndTime=1.0
2018-07-29 19:13:57,285  WARN FEMUtils:96 origEndTime=6600.0; newEndTime=1.0
2018-07-29 19:13:57,285  WARN FEMUtils:96 origEndTime=6600.0; newEndTime=1.0
2018-07-29 19:13:57,285  WARN FEMUtils:96 origEndTime=6600.0; newEndTime=1.0
2018-07-29 19:13:57,285  WARN FEMUtils:96 origEndTime=6600.0; newEndTime=1.0
2018-07-29 19:13:57,285  WARN FEMUtils:96 origEndTime=6600.0; newEndTime=1.0
2018-07-29 19:13:57,285  WARN FEMUtils:96 origEndTime=6600.0; newEndTime=1.0
2018-07-29 19:13:57,285  WARN FEMUtils:96 origEndTime=6600.0; newEndTime=1.0
2018-07-29 19:13:57,285  WARN FEMUtils:96 origEndTime=6600.0; newEndTime=1.0
2018-07-29 19:13:57,285  WARN FEMUtils:96 origEndTime=6600.0; newEndTime=1.0
2018-07-29 19:13:57,286  WARN FEMUtils:96 origEndTime=6600.0; newEndTime=1.0
2018-07-29 19:13:57,286  WARN FEMUtils:96 origEndTime=6600.0; newEndTime=1.0
2018-07-29 19:13:57,286  WARN FEMUtils:96 origEndTime=6600.0; newEndTime=1.0
2018-07-29 19:13:57,286  WARN FEMUtils:96 origEndTime=6600.0; newEndTime=1.0
2018-07-29 19:13:57,286  WARN FEMUtils:96 origEndTime=6600.0; newEndTime=1.0
2018-07-29 19:13:57,286  WARN FEMUtils:96 origEndTime=6600.0; newEndTime=1.0
2018-07-29 19:13:57,286  WARN FEMUtils:96 origEndTime=6600.0; newEndTime=1.0
2018-07-29 19:13:57,286  WARN FEMUtils:96 origEndTime=6600.0; newEndTime=1.0
2018-07-29 19:13:57,286  WARN FEMUtils:96 origEndTime=6600.0; newEndTime=1.0
2018-07-29 19:13:57,286  WARN FEMUtils:96 origEndTime=6600.0; newEndTime=1.0
2018-07-29 19:13:57,286  WARN FEMUtils:96 origEndTime=6600.0; newEndTime=1.0
2018-07-29 19:13:57,286  WARN FEMUtils:96 origEndTime=6600.0; newEndTime=1.0
2018-07-29 19:13:57,286  WARN FEMUtils:96 origEndTime=6600.0; newEndTime=1.0
2018-07-29 19:13:57,287  WARN FEMUtils:96 origEndTime=6600.0; newEndTime=1.0
2018-07-29 19:13:57,287  WARN FEMUtils:96 origEndTime=6600.0; newEndTime=1.0
2018-07-29 19:13:57,287  WARN FEMUtils:96 origEndTime=6600.0; newEndTime=1.0
2018-07-29 19:13:57,287  WARN FEMUtils:96 origEndTime=6600.0; newEndTime=1.0
2018-07-29 19:13:57,287  WARN FEMUtils:96 origEndTime=6600.0; newEndTime=1.0
2018-07-29 19:13:57,287  WARN FEMUtils:96 origEndTime=6600.0; newEndTime=1.0
2018-07-29 19:13:57,287  WARN FEMUtils:96 origEndTime=6600.0; newEndTime=1.0
2018-07-29 19:13:57,287  WARN FEMUtils:96 origEndTime=6600.0; newEndTime=1.0
2018-07-29 19:13:57,287  WARN FEMUtils:96 origEndTime=6600.0; newEndTime=1.0
2018-07-29 19:13:57,287  WARN FEMUtils:96 origEndTime=6600.0; newEndTime=1.0
2018-07-29 19:13:57,287  WARN FEMUtils:96 origEndTime=6600.0; newEndTime=1.0
2018-07-29 19:13:57,287  WARN FEMUtils:96 origEndTime=6600.0; newEndTime=1.0
2018-07-29 19:13:57,287  WARN FEMUtils:96 origEndTime=6600.0; newEndTime=1.0
2018-07-29 19:13:57,287  WARN FEMUtils:96 origEndTime=6600.0; newEndTime=1.0
2018-07-29 19:13:57,288  WARN FEMUtils:96 origEndTime=6600.0; newEndTime=1.0
2018-07-29 19:13:57,288  WARN FEMUtils:96 origEndTime=6600.0; newEndTime=1.0
2018-07-29 19:13:57,288  WARN FEMUtils:96 origEndTime=6600.0; newEndTime=1.0
2018-07-29 19:13:57,288  WARN FEMUtils:96 origEndTime=6600.0; newEndTime=1.0
2018-07-29 19:13:57,288  WARN FEMUtils:96 origEndTime=6600.0; newEndTime=1.0
2018-07-29 19:13:57,288  WARN FEMUtils:96 origEndTime=6600.0; newEndTime=1.0
2018-07-29 19:13:57,288  WARN FEMUtils:96 origEndTime=6600.0; newEndTime=1.0
2018-07-29 19:13:57,288  WARN FEMUtils:96 origEndTime=6600.0; newEndTime=1.0
2018-07-29 19:13:57,288  WARN FEMUtils:96 origEndTime=6600.0; newEndTime=1.0
2018-07-29 19:13:57,288  WARN FEMUtils:96 origEndTime=6600.0; newEndTime=1.0
2018-07-29 19:13:57,288  WARN FEMUtils:96 origEndTime=6600.0; newEndTime=1.0
2018-07-29 19:13:57,288  WARN FEMUtils:96 origEndTime=6600.0; newEndTime=1.0
2018-07-29 19:13:57,288  WARN FEMUtils:96 origEndTime=6600.0; newEndTime=1.0
2018-07-29 19:13:57,288  WARN FEMUtils:96 origEndTime=6600.0; newEndTime=1.0
2018-07-29 19:13:57,289  WARN FEMUtils:96 origEndTime=6600.0; newEndTime=1.0
2018-07-29 19:13:57,289  WARN FEMUtils:96 origEndTime=6600.0; newEndTime=1.0
2018-07-29 19:13:57,289  WARN FEMUtils:96 origEndTime=6600.0; newEndTime=1.0
2018-07-29 19:13:57,289  WARN FEMUtils:96 origEndTime=6600.0; newEndTime=1.0
2018-07-29 19:13:57,289  WARN FEMUtils:96 origEndTime=6600.0; newEndTime=1.0
2018-07-29 19:13:57,289  WARN FEMUtils:96 origEndTime=6600.0; newEndTime=1.0
2018-07-29 19:13:57,289  WARN FEMUtils:96 origEndTime=6600.0; newEndTime=1.0
2018-07-29 19:13:57,289  WARN FEMUtils:96 origEndTime=6600.0; newEndTime=1.0
2018-07-29 19:13:57,289  WARN FEMUtils:96 origEndTime=6600.0; newEndTime=1.0
2018-07-29 19:13:57,289  WARN FEMUtils:96 origEndTime=6600.0; newEndTime=1.0
2018-07-29 19:13:57,289  WARN FEMUtils:96 origEndTime=6600.0; newEndTime=1.0
2018-07-29 19:13:57,289  WARN FEMUtils:96 origEndTime=6600.0; newEndTime=1.0
2018-07-29 19:13:57,289  WARN FEMUtils:96 origEndTime=6600.0; newEndTime=1.0
2018-07-29 19:13:57,289  WARN FEMUtils:96 origEndTime=6600.0; newEndTime=1.0
2018-07-29 19:13:57,290  WARN FEMUtils:96 origEndTime=6600.0; newEndTime=1.0
2018-07-29 19:13:57,290  WARN FEMUtils:96 origEndTime=6600.0; newEndTime=1.0
2018-07-29 19:13:57,290  WARN FEMUtils:96 origEndTime=6600.0; newEndTime=1.0
2018-07-29 19:13:57,290  WARN FEMUtils:96 origEndTime=6600.0; newEndTime=1.0
2018-07-29 19:13:57,290  WARN FEMUtils:96 origEndTime=6600.0; newEndTime=1.0
2018-07-29 19:13:57,290  WARN FEMUtils:96 origEndTime=6600.0; newEndTime=1.0
2018-07-29 19:13:57,290  WARN FEMUtils:96 origEndTime=6600.0; newEndTime=1.0
2018-07-29 19:13:57,290  WARN FEMUtils:96 origEndTime=6600.0; newEndTime=1.0
2018-07-29 19:13:57,290  WARN FEMUtils:96 origEndTime=6600.0; newEndTime=1.0
2018-07-29 19:13:57,290  WARN FEMUtils:96 origEndTime=6600.0; newEndTime=1.0
2018-07-29 19:13:57,290  WARN FEMUtils:96 origEndTime=6600.0; newEndTime=1.0
2018-07-29 19:13:57,290  WARN FEMUtils:96 origEndTime=6600.0; newEndTime=1.0
2018-07-29 19:13:57,290  WARN FEMUtils:96 origEndTime=6600.0; newEndTime=1.0
2018-07-29 19:13:57,291  WARN FEMUtils:96 origEndTime=6600.0; newEndTime=1.0
2018-07-29 19:13:57,291  WARN FEMUtils:96 origEndTime=6600.0; newEndTime=1.0
2018-07-29 19:13:57,291  WARN FEMUtils:96 origEndTime=6600.0; newEndTime=1.0
2018-07-29 19:13:57,291  WARN FEMUtils:96 origEndTime=6600.0; newEndTime=1.0
2018-07-29 19:13:57,291  WARN FEMUtils:96 origEndTime=6600.0; newEndTime=1.0
2018-07-29 19:13:57,291  WARN FEMUtils:96 origEndTime=6600.0; newEndTime=1.0
2018-07-29 19:13:57,291  WARN FEMUtils:96 origEndTime=6600.0; newEndTime=1.0
2018-07-29 19:13:57,291  WARN FEMUtils:96 origEndTime=6600.0; newEndTime=1.0
2018-07-29 19:13:57,291  WARN FEMUtils:96 origEndTime=6600.0; newEndTime=1.0
2018-07-29 19:13:57,291  WARN FEMUtils:96 origEndTime=6600.0; newEndTime=1.0
2018-07-29 19:13:57,291  WARN FEMUtils:96 origEndTime=6600.0; newEndTime=1.0
2018-07-29 19:13:57,291  WARN FEMUtils:96 origEndTime=6600.0; newEndTime=1.0
2018-07-29 19:13:57,291  WARN FEMUtils:96 origEndTime=6600.0; newEndTime=1.0
2018-07-29 19:13:57,292  WARN FEMUtils:96 origEndTime=6600.0; newEndTime=1.0
2018-07-29 19:13:57,292  WARN FEMUtils:96 origEndTime=6600.0; newEndTime=1.0
2018-07-29 19:13:57,292  WARN FEMUtils:96 origEndTime=6600.0; newEndTime=1.0
2018-07-29 19:13:57,292  WARN FEMUtils:96 origEndTime=6600.0; newEndTime=1.0
2018-07-29 19:13:57,292  WARN FEMUtils:96 origEndTime=6600.0; newEndTime=1.0
2018-07-29 19:13:57,292  WARN FEMUtils:96 origEndTime=6600.0; newEndTime=1.0
2018-07-29 19:13:57,292  WARN FEMUtils:96 origEndTime=6600.0; newEndTime=1.0
2018-07-29 19:13:57,292  WARN FEMUtils:96 origEndTime=6600.0; newEndTime=1.0
2018-07-29 19:13:57,292  WARN FEMUtils:96 origEndTime=6600.0; newEndTime=1.0
2018-07-29 19:13:57,292  WARN FEMUtils:96 origEndTime=6600.0; newEndTime=1.0
2018-07-29 19:13:57,292  WARN FEMUtils:96 origEndTime=6600.0; newEndTime=1.0
2018-07-29 19:13:57,292  WARN FEMUtils:96 origEndTime=6600.0; newEndTime=1.0
2018-07-29 19:13:57,292  WARN FEMUtils:96 origEndTime=6600.0; newEndTime=1.0
2018-07-29 19:13:57,292  WARN FEMUtils:96 origEndTime=6600.0; newEndTime=1.0
2018-07-29 19:13:57,293  WARN FEMUtils:96 origEndTime=6600.0; newEndTime=1.0
2018-07-29 19:13:57,293  WARN FEMUtils:96 origEndTime=6600.0; newEndTime=1.0
2018-07-29 19:13:57,293  WARN FEMUtils:96 origEndTime=6600.0; newEndTime=1.0
2018-07-29 19:13:57,293  WARN FEMUtils:96 origEndTime=6600.0; newEndTime=1.0
2018-07-29 19:13:57,293  WARN FEMUtils:96 origEndTime=6600.0; newEndTime=1.0
2018-07-29 19:13:57,293  WARN FEMUtils:96 origEndTime=6600.0; newEndTime=1.0
2018-07-29 19:13:57,293  WARN FEMUtils:96 origEndTime=6600.0; newEndTime=1.0
2018-07-29 19:13:57,293  WARN FEMUtils:96 origEndTime=6600.0; newEndTime=1.0
2018-07-29 19:13:57,293  WARN FEMUtils:96 origEndTime=6600.0; newEndTime=1.0
2018-07-29 19:13:57,293  WARN FEMUtils:96 origEndTime=6600.0; newEndTime=1.0
2018-07-29 19:13:57,293  WARN FEMUtils:96 origEndTime=6600.0; newEndTime=1.0
2018-07-29 19:13:57,294  WARN FEMUtils:96 origEndTime=33300.0; newEndTime=1.0
2018-07-29 19:13:57,294  WARN FEMUtils:96 origEndTime=33300.0; newEndTime=1.0
2018-07-29 19:13:57,294  WARN FEMUtils:96 origEndTime=33300.0; newEndTime=1.0
2018-07-29 19:13:57,294  WARN FEMUtils:96 origEndTime=33300.0; newEndTime=1.0
2018-07-29 19:13:57,294  WARN FEMUtils:96 origEndTime=33300.0; newEndTime=1.0
2018-07-29 19:13:57,294  WARN FEMUtils:96 origEndTime=33300.0; newEndTime=1.0
2018-07-29 19:13:57,294  WARN FEMUtils:96 origEndTime=33300.0; newEndTime=1.0
2018-07-29 19:13:57,295  WARN FEMUtils:96 origEndTime=33300.0; newEndTime=1.0
2018-07-29 19:13:57,295  WARN FEMUtils:96 origEndTime=33300.0; newEndTime=1.0
2018-07-29 19:13:57,295  WARN FEMUtils:96 origEndTime=33300.0; newEndTime=1.0
2018-07-29 19:13:57,295  WARN FEMUtils:96 origEndTime=33300.0; newEndTime=1.0
2018-07-29 19:13:57,295  WARN FEMUtils:96 origEndTime=33300.0; newEndTime=1.0
2018-07-29 19:13:57,295  WARN FEMUtils:96 origEndTime=33300.0; newEndTime=1.0
2018-07-29 19:13:57,295  WARN FEMUtils:96 origEndTime=21300.0; newEndTime=1.0
2018-07-29 19:13:57,295  WARN FEMUtils:96 origEndTime=21300.0; newEndTime=1.0
2018-07-29 19:13:57,295  WARN FEMUtils:96 origEndTime=21300.0; newEndTime=1.0
2018-07-29 19:13:57,295  WARN FEMUtils:96 origEndTime=21300.0; newEndTime=1.0
2018-07-29 19:13:57,295  WARN FEMUtils:96 origEndTime=21300.0; newEndTime=1.0
2018-07-29 19:13:57,295  WARN FEMUtils:96 origEndTime=21300.0; newEndTime=1.0
2018-07-29 19:13:57,295  WARN FEMUtils:96 origEndTime=21300.0; newEndTime=1.0
2018-07-29 19:13:57,295  WARN FEMUtils:96 origEndTime=21300.0; newEndTime=1.0
2018-07-29 19:13:57,296  WARN FEMUtils:96 origEndTime=21300.0; newEndTime=1.0
2018-07-29 19:13:57,296  WARN FEMUtils:96 origEndTime=21300.0; newEndTime=1.0
2018-07-29 19:13:57,296  WARN FEMUtils:96 origEndTime=21300.0; newEndTime=1.0
2018-07-29 19:13:57,296  WARN FEMUtils:96 origEndTime=21300.0; newEndTime=1.0
2018-07-29 19:13:57,296  WARN FEMUtils:96 origEndTime=21300.0; newEndTime=1.0
2018-07-29 19:13:57,296  WARN FEMUtils:96 origEndTime=43500.0; newEndTime=1.0
2018-07-29 19:13:57,296  WARN FEMUtils:96 origEndTime=43500.0; newEndTime=1.0
2018-07-29 19:13:57,296  WARN FEMUtils:96 origEndTime=43500.0; newEndTime=1.0
2018-07-29 19:13:57,296  WARN FEMUtils:96 origEndTime=43500.0; newEndTime=1.0
2018-07-29 19:13:57,296  WARN FEMUtils:96 origEndTime=43500.0; newEndTime=1.0
2018-07-29 19:13:57,296  WARN FEMUtils:96 origEndTime=43500.0; newEndTime=1.0
2018-07-29 19:13:57,296  WARN FEMUtils:96 origEndTime=43500.0; newEndTime=1.0
2018-07-29 19:13:57,296  WARN FEMUtils:96 origEndTime=43500.0; newEndTime=1.0
2018-07-29 19:13:57,297  WARN FEMUtils:96 origEndTime=43500.0; newEndTime=1.0
2018-07-29 19:13:57,297  WARN FEMUtils:96 origEndTime=43500.0; newEndTime=1.0
2018-07-29 19:13:57,297  WARN FEMUtils:96 origEndTime=43500.0; newEndTime=1.0
2018-07-29 19:13:57,297  WARN FEMUtils:96 origEndTime=43500.0; newEndTime=1.0
2018-07-29 19:13:57,297  WARN FEMUtils:96 origEndTime=43500.0; newEndTime=1.0
2018-07-29 19:13:57,297  WARN FEMUtils:96 origEndTime=19200.0; newEndTime=1.0
2018-07-29 19:13:57,297  WARN FEMUtils:96 origEndTime=19200.0; newEndTime=1.0
2018-07-29 19:13:57,297  WARN FEMUtils:96 origEndTime=19200.0; newEndTime=1.0
2018-07-29 19:13:57,297  WARN FEMUtils:96 origEndTime=19200.0; newEndTime=1.0
2018-07-29 19:13:57,297  WARN FEMUtils:96 origEndTime=19200.0; newEndTime=1.0
2018-07-29 19:13:57,297  WARN FEMUtils:96 origEndTime=19200.0; newEndTime=1.0
2018-07-29 19:13:57,297  WARN FEMUtils:96 origEndTime=19200.0; newEndTime=1.0
2018-07-29 19:13:57,297  WARN FEMUtils:96 origEndTime=19200.0; newEndTime=1.0
2018-07-29 19:13:57,297  WARN FEMUtils:96 origEndTime=19200.0; newEndTime=1.0
2018-07-29 19:13:57,298  WARN FEMUtils:96 origEndTime=19200.0; newEndTime=1.0
2018-07-29 19:13:57,298  WARN FEMUtils:96 origEndTime=19200.0; newEndTime=1.0
2018-07-29 19:13:57,298  WARN FEMUtils:96 origEndTime=19200.0; newEndTime=1.0
2018-07-29 19:13:57,298  WARN FEMUtils:96 origEndTime=19200.0; newEndTime=1.0
2018-07-29 19:13:57,298  WARN FEMUtils:96 origEndTime=19200.0; newEndTime=1.0
2018-07-29 19:13:57,298  WARN FEMUtils:96 origEndTime=19200.0; newEndTime=1.0
2018-07-29 19:13:57,298  WARN FEMUtils:96 origEndTime=19200.0; newEndTime=1.0
2018-07-29 19:13:57,298  WARN FEMUtils:96 origEndTime=19200.0; newEndTime=1.0
2018-07-29 19:13:57,298  WARN FEMUtils:96 origEndTime=19200.0; newEndTime=1.0
2018-07-29 19:13:57,298  WARN FEMUtils:96 origEndTime=19200.0; newEndTime=1.0
2018-07-29 19:13:57,298  WARN FEMUtils:96 origEndTime=19200.0; newEndTime=1.0
2018-07-29 19:13:57,298  WARN FEMUtils:96 origEndTime=19200.0; newEndTime=1.0
2018-07-29 19:13:57,298  WARN FEMUtils:96 origEndTime=19200.0; newEndTime=1.0
2018-07-29 19:13:57,298  WARN FEMUtils:96 origEndTime=19200.0; newEndTime=1.0
2018-07-29 19:13:57,299  WARN FEMUtils:96 origEndTime=19200.0; newEndTime=1.0
2018-07-29 19:13:57,299  WARN FEMUtils:96 origEndTime=19200.0; newEndTime=1.0
2018-07-29 19:13:57,299  WARN FEMUtils:96 origEndTime=19200.0; newEndTime=1.0
2018-07-29 19:13:57,299  WARN FEMUtils:96 origEndTime=21900.0; newEndTime=1.0
2018-07-29 19:13:57,299  WARN FEMUtils:96 origEndTime=21900.0; newEndTime=1.0
2018-07-29 19:13:57,299  WARN FEMUtils:96 origEndTime=21900.0; newEndTime=1.0
2018-07-29 19:13:57,299  WARN FEMUtils:96 origEndTime=21900.0; newEndTime=1.0
2018-07-29 19:13:57,299  WARN FEMUtils:96 origEndTime=21900.0; newEndTime=1.0
2018-07-29 19:13:57,299  WARN FEMUtils:96 origEndTime=21900.0; newEndTime=1.0
2018-07-29 19:13:57,299  WARN FEMUtils:96 origEndTime=21900.0; newEndTime=1.0
2018-07-29 19:13:57,299  WARN FEMUtils:96 origEndTime=21900.0; newEndTime=1.0
2018-07-29 19:13:57,299  WARN FEMUtils:96 origEndTime=21900.0; newEndTime=1.0
2018-07-29 19:13:57,299  WARN FEMUtils:96 origEndTime=21900.0; newEndTime=1.0
2018-07-29 19:13:57,299  WARN FEMUtils:96 origEndTime=21900.0; newEndTime=1.0
2018-07-29 19:13:57,300  WARN FEMUtils:96 origEndTime=21900.0; newEndTime=1.0
2018-07-29 19:13:57,300  WARN FEMUtils:96 origEndTime=21900.0; newEndTime=1.0
2018-07-29 19:13:57,300  WARN FEMUtils:96 origEndTime=21900.0; newEndTime=1.0
2018-07-29 19:13:57,300  WARN FEMUtils:96 origEndTime=21900.0; newEndTime=1.0
2018-07-29 19:13:57,300  WARN FEMUtils:96 origEndTime=21900.0; newEndTime=1.0
2018-07-29 19:13:57,300  WARN FEMUtils:96 origEndTime=21900.0; newEndTime=1.0
2018-07-29 19:13:57,300  WARN FEMUtils:96 origEndTime=21900.0; newEndTime=1.0
2018-07-29 19:13:57,300  WARN FEMUtils:96 origEndTime=21900.0; newEndTime=1.0
2018-07-29 19:13:57,300  WARN FEMUtils:96 origEndTime=21900.0; newEndTime=1.0
2018-07-29 19:13:57,300  WARN FEMUtils:96 origEndTime=21900.0; newEndTime=1.0
2018-07-29 19:13:57,300  WARN FEMUtils:96 origEndTime=21900.0; newEndTime=1.0
2018-07-29 19:13:57,300  WARN FEMUtils:96 origEndTime=21900.0; newEndTime=1.0
2018-07-29 19:13:57,300  WARN FEMUtils:96 origEndTime=21900.0; newEndTime=1.0
2018-07-29 19:13:57,300  WARN FEMUtils:96 origEndTime=21900.0; newEndTime=1.0
2018-07-29 19:13:57,301  WARN FEMUtils:96 origEndTime=21900.0; newEndTime=1.0
2018-07-29 19:13:57,301  WARN FEMUtils:96 origEndTime=21900.0; newEndTime=1.0
2018-07-29 19:13:57,301  WARN FEMUtils:96 origEndTime=21900.0; newEndTime=1.0
2018-07-29 19:13:57,301  WARN FEMUtils:96 origEndTime=21900.0; newEndTime=1.0
2018-07-29 19:13:57,301  WARN FEMUtils:96 origEndTime=21900.0; newEndTime=1.0
2018-07-29 19:13:57,301  WARN FEMUtils:96 origEndTime=21900.0; newEndTime=1.0
2018-07-29 19:13:57,301  WARN FEMUtils:96 origEndTime=21900.0; newEndTime=1.0
2018-07-29 19:13:57,301  WARN FEMUtils:96 origEndTime=21900.0; newEndTime=1.0
2018-07-29 19:13:57,301  WARN FEMUtils:96 origEndTime=21900.0; newEndTime=1.0
2018-07-29 19:13:57,301  WARN FEMUtils:96 origEndTime=21900.0; newEndTime=1.0
2018-07-29 19:13:57,301  WARN FEMUtils:96 origEndTime=21900.0; newEndTime=1.0
2018-07-29 19:13:57,301  WARN FEMUtils:96 origEndTime=21900.0; newEndTime=1.0
2018-07-29 19:13:57,301  WARN FEMUtils:96 origEndTime=21900.0; newEndTime=1.0
2018-07-29 19:13:57,301  WARN FEMUtils:96 origEndTime=21900.0; newEndTime=1.0
2018-07-29 19:13:57,302  WARN FEMUtils:96 origEndTime=21900.0; newEndTime=1.0
2018-07-29 19:13:57,302  WARN FEMUtils:96 origEndTime=21900.0; newEndTime=1.0
2018-07-29 19:13:57,302  WARN FEMUtils:96 origEndTime=21900.0; newEndTime=1.0
2018-07-29 19:13:57,302  WARN FEMUtils:96 origEndTime=21900.0; newEndTime=1.0
2018-07-29 19:13:57,302  WARN FEMUtils:96 origEndTime=21900.0; newEndTime=1.0
2018-07-29 19:13:57,302  WARN FEMUtils:96 origEndTime=21900.0; newEndTime=1.0
2018-07-29 19:13:57,302  WARN FEMUtils:96 origEndTime=21900.0; newEndTime=1.0
2018-07-29 19:13:57,302  WARN FEMUtils:96 origEndTime=21900.0; newEndTime=1.0
2018-07-29 19:13:57,302  WARN FEMUtils:96 origEndTime=21900.0; newEndTime=1.0
2018-07-29 19:13:57,302  WARN FEMUtils:96 origEndTime=21900.0; newEndTime=1.0
2018-07-29 19:13:57,302  WARN FEMUtils:96 origEndTime=21900.0; newEndTime=1.0
2018-07-29 19:13:57,302  WARN FEMUtils:96 origEndTime=21900.0; newEndTime=1.0
2018-07-29 19:13:57,302  WARN FEMUtils:96 origEndTime=21900.0; newEndTime=1.0
2018-07-29 19:13:57,302  WARN FEMUtils:96 origEndTime=21900.0; newEndTime=1.0
2018-07-29 19:13:57,302  WARN FEMUtils:96 origEndTime=21900.0; newEndTime=1.0
2018-07-29 19:13:57,303  WARN FEMUtils:96 origEndTime=21900.0; newEndTime=1.0
2018-07-29 19:13:57,303  WARN FEMUtils:96 origEndTime=21900.0; newEndTime=1.0
2018-07-29 19:13:57,303  WARN FEMUtils:96 origEndTime=21900.0; newEndTime=1.0
2018-07-29 19:13:57,303  WARN FEMUtils:96 origEndTime=21900.0; newEndTime=1.0
2018-07-29 19:13:57,303  WARN FEMUtils:96 origEndTime=21900.0; newEndTime=1.0
2018-07-29 19:13:57,303  WARN FEMUtils:96 origEndTime=21900.0; newEndTime=1.0
2018-07-29 19:13:57,303  WARN FEMUtils:96 origEndTime=21900.0; newEndTime=1.0
2018-07-29 19:13:57,303  WARN FEMUtils:96 origEndTime=21900.0; newEndTime=1.0
2018-07-29 19:13:57,303  WARN FEMUtils:96 origEndTime=21900.0; newEndTime=1.0
2018-07-29 19:13:57,303  WARN FEMUtils:96 origEndTime=21900.0; newEndTime=1.0
2018-07-29 19:13:57,303  WARN FEMUtils:96 origEndTime=21900.0; newEndTime=1.0
2018-07-29 19:13:57,303  WARN FEMUtils:96 origEndTime=36600.0; newEndTime=1.0
2018-07-29 19:13:57,303  WARN FEMUtils:96 origEndTime=36600.0; newEndTime=1.0
2018-07-29 19:13:57,303  WARN FEMUtils:96 origEndTime=36600.0; newEndTime=1.0
2018-07-29 19:13:57,304  WARN FEMUtils:96 origEndTime=36600.0; newEndTime=1.0
2018-07-29 19:13:57,304  WARN FEMUtils:96 origEndTime=36600.0; newEndTime=1.0
2018-07-29 19:13:57,304  WARN FEMUtils:96 origEndTime=36600.0; newEndTime=1.0
2018-07-29 19:13:57,304  WARN FEMUtils:96 origEndTime=36600.0; newEndTime=1.0
2018-07-29 19:13:57,304  WARN FEMUtils:96 origEndTime=36600.0; newEndTime=1.0
2018-07-29 19:13:57,304  WARN FEMUtils:96 origEndTime=36600.0; newEndTime=1.0
2018-07-29 19:13:57,304  WARN FEMUtils:96 origEndTime=36600.0; newEndTime=1.0
2018-07-29 19:13:57,304  WARN FEMUtils:96 origEndTime=36600.0; newEndTime=1.0
2018-07-29 19:13:57,304  WARN FEMUtils:96 origEndTime=36600.0; newEndTime=1.0
2018-07-29 19:13:57,304  WARN FEMUtils:96 origEndTime=36600.0; newEndTime=1.0
2018-07-29 19:13:57,304  WARN FEMUtils:96 origEndTime=21900.0; newEndTime=1.0
2018-07-29 19:13:57,304  WARN FEMUtils:96 origEndTime=21900.0; newEndTime=1.0
2018-07-29 19:13:57,304  WARN FEMUtils:96 origEndTime=21900.0; newEndTime=1.0
2018-07-29 19:13:57,304  WARN FEMUtils:96 origEndTime=21900.0; newEndTime=1.0
2018-07-29 19:13:57,304  WARN FEMUtils:96 origEndTime=21900.0; newEndTime=1.0
2018-07-29 19:13:57,305  WARN FEMUtils:96 origEndTime=21900.0; newEndTime=1.0
2018-07-29 19:13:57,305  WARN FEMUtils:96 origEndTime=21900.0; newEndTime=1.0
2018-07-29 19:13:57,305  WARN FEMUtils:96 origEndTime=21900.0; newEndTime=1.0
2018-07-29 19:13:57,305  WARN FEMUtils:96 origEndTime=21900.0; newEndTime=1.0
2018-07-29 19:13:57,305  WARN FEMUtils:96 origEndTime=21900.0; newEndTime=1.0
2018-07-29 19:13:57,305  WARN FEMUtils:96 origEndTime=21900.0; newEndTime=1.0
2018-07-29 19:13:57,305  WARN FEMUtils:96 origEndTime=21900.0; newEndTime=1.0
2018-07-29 19:13:57,305  WARN FEMUtils:96 origEndTime=21900.0; newEndTime=1.0
2018-07-29 19:13:57,305  WARN FEMUtils:96 origEndTime=21900.0; newEndTime=1.0
2018-07-29 19:13:57,305  WARN FEMUtils:96 origEndTime=21900.0; newEndTime=1.0
2018-07-29 19:13:57,306  WARN FEMUtils:96 origEndTime=21900.0; newEndTime=1.0
2018-07-29 19:13:57,306  WARN FEMUtils:96 origEndTime=21900.0; newEndTime=1.0
2018-07-29 19:13:57,306  WARN FEMUtils:96 origEndTime=21900.0; newEndTime=1.0
2018-07-29 19:13:57,306  WARN FEMUtils:96 origEndTime=21900.0; newEndTime=1.0
2018-07-29 19:13:57,306  WARN FEMUtils:96 origEndTime=21900.0; newEndTime=1.0
2018-07-29 19:13:57,306  WARN FEMUtils:96 origEndTime=21900.0; newEndTime=1.0
2018-07-29 19:13:57,306  WARN FEMUtils:96 origEndTime=21900.0; newEndTime=1.0
2018-07-29 19:13:57,306  WARN FEMUtils:96 origEndTime=21900.0; newEndTime=1.0
2018-07-29 19:13:57,306  WARN FEMUtils:96 origEndTime=21900.0; newEndTime=1.0
2018-07-29 19:13:57,306  WARN FEMUtils:96 origEndTime=21900.0; newEndTime=1.0
2018-07-29 19:13:57,306  WARN FEMUtils:96 origEndTime=21900.0; newEndTime=1.0
2018-07-29 19:13:57,307  WARN FEMUtils:96 origEndTime=21900.0; newEndTime=1.0
2018-07-29 19:13:57,307  WARN FEMUtils:96 origEndTime=21900.0; newEndTime=1.0
2018-07-29 19:13:57,307  WARN FEMUtils:96 origEndTime=21900.0; newEndTime=1.0
2018-07-29 19:13:57,307  WARN FEMUtils:96 origEndTime=21900.0; newEndTime=1.0
2018-07-29 19:13:57,307  WARN FEMUtils:96 origEndTime=21900.0; newEndTime=1.0
2018-07-29 19:13:57,307  WARN FEMUtils:96 origEndTime=21900.0; newEndTime=1.0
2018-07-29 19:13:57,307  WARN FEMUtils:96 origEndTime=21900.0; newEndTime=1.0
2018-07-29 19:13:57,307  WARN FEMUtils:96 origEndTime=21900.0; newEndTime=1.0
2018-07-29 19:13:57,307  WARN FEMUtils:96 origEndTime=21900.0; newEndTime=1.0
2018-07-29 19:13:57,307  WARN FEMUtils:96 origEndTime=21900.0; newEndTime=1.0
2018-07-29 19:13:57,307  WARN FEMUtils:96 origEndTime=21900.0; newEndTime=1.0
2018-07-29 19:13:57,307  WARN FEMUtils:96 origEndTime=21900.0; newEndTime=1.0
2018-07-29 19:13:57,307  WARN FEMUtils:96 origEndTime=21900.0; newEndTime=1.0
2018-07-29 19:13:57,307  WARN FEMUtils:96 origEndTime=21900.0; newEndTime=1.0
2018-07-29 19:13:57,307  WARN FEMUtils:96 origEndTime=21900.0; newEndTime=1.0
2018-07-29 19:13:57,308  WARN FEMUtils:96 origEndTime=21900.0; newEndTime=1.0
2018-07-29 19:13:57,308  WARN FEMUtils:96 origEndTime=21900.0; newEndTime=1.0
2018-07-29 19:13:57,308  WARN FEMUtils:96 origEndTime=21900.0; newEndTime=1.0
2018-07-29 19:13:57,308  WARN FEMUtils:96 origEndTime=21900.0; newEndTime=1.0
2018-07-29 19:13:57,308  WARN FEMUtils:96 origEndTime=21900.0; newEndTime=1.0
2018-07-29 19:13:57,308  WARN FEMUtils:96 origEndTime=21900.0; newEndTime=1.0
2018-07-29 19:13:57,308  WARN FEMUtils:96 origEndTime=21900.0; newEndTime=1.0
2018-07-29 19:13:57,308  WARN FEMUtils:96 origEndTime=21900.0; newEndTime=1.0
2018-07-29 19:13:57,308  WARN FEMUtils:96 origEndTime=21900.0; newEndTime=1.0
2018-07-29 19:13:57,308  WARN FEMUtils:96 origEndTime=21900.0; newEndTime=1.0
2018-07-29 19:13:57,308  WARN FEMUtils:96 origEndTime=21900.0; newEndTime=1.0
2018-07-29 19:13:57,308  WARN FEMUtils:96 origEndTime=36600.0; newEndTime=1.0
2018-07-29 19:13:57,308  WARN FEMUtils:96 origEndTime=36600.0; newEndTime=1.0
2018-07-29 19:13:57,308  WARN FEMUtils:96 origEndTime=36600.0; newEndTime=1.0
2018-07-29 19:13:57,309  WARN FEMUtils:96 origEndTime=36600.0; newEndTime=1.0
2018-07-29 19:13:57,309  WARN FEMUtils:96 origEndTime=36600.0; newEndTime=1.0
2018-07-29 19:13:57,309  WARN FEMUtils:96 origEndTime=36600.0; newEndTime=1.0
2018-07-29 19:13:57,309  WARN FEMUtils:96 origEndTime=36600.0; newEndTime=1.0
2018-07-29 19:13:57,309  WARN FEMUtils:96 origEndTime=36600.0; newEndTime=1.0
2018-07-29 19:13:57,309  WARN FEMUtils:96 origEndTime=36600.0; newEndTime=1.0
2018-07-29 19:13:57,309  WARN FEMUtils:96 origEndTime=36600.0; newEndTime=1.0
2018-07-29 19:13:57,309  WARN FEMUtils:96 origEndTime=36600.0; newEndTime=1.0
2018-07-29 19:13:57,309  WARN FEMUtils:96 origEndTime=36600.0; newEndTime=1.0
2018-07-29 19:13:57,309  WARN FEMUtils:96 origEndTime=36600.0; newEndTime=1.0
2018-07-29 19:13:57,309  WARN FEMUtils:96 origEndTime=21900.0; newEndTime=1.0
2018-07-29 19:13:57,309  WARN FEMUtils:96 origEndTime=21900.0; newEndTime=1.0
2018-07-29 19:13:57,309  WARN FEMUtils:96 origEndTime=21900.0; newEndTime=1.0
2018-07-29 19:13:57,309  WARN FEMUtils:96 origEndTime=21900.0; newEndTime=1.0
2018-07-29 19:13:57,310  WARN FEMUtils:96 origEndTime=21900.0; newEndTime=1.0
2018-07-29 19:13:57,310  WARN FEMUtils:96 origEndTime=21900.0; newEndTime=1.0
2018-07-29 19:13:57,310  WARN FEMUtils:96 origEndTime=21900.0; newEndTime=1.0
2018-07-29 19:13:57,310  WARN FEMUtils:96 origEndTime=21900.0; newEndTime=1.0
2018-07-29 19:13:57,310  WARN FEMUtils:96 origEndTime=21900.0; newEndTime=1.0
2018-07-29 19:13:57,310  WARN FEMUtils:96 origEndTime=21900.0; newEndTime=1.0
2018-07-29 19:13:57,310  WARN FEMUtils:96 origEndTime=21900.0; newEndTime=1.0
2018-07-29 19:13:57,310  WARN FEMUtils:96 origEndTime=21900.0; newEndTime=1.0
2018-07-29 19:13:57,310  WARN FEMUtils:96 origEndTime=21900.0; newEndTime=1.0
2018-07-29 19:13:57,310  WARN FEMUtils:96 origEndTime=21900.0; newEndTime=1.0
2018-07-29 19:13:57,310  WARN FEMUtils:96 origEndTime=21900.0; newEndTime=1.0
2018-07-29 19:13:57,310  WARN FEMUtils:96 origEndTime=21900.0; newEndTime=1.0
2018-07-29 19:13:57,311  WARN FEMUtils:96 origEndTime=21900.0; newEndTime=1.0
2018-07-29 19:13:57,311  WARN FEMUtils:96 origEndTime=21900.0; newEndTime=1.0
2018-07-29 19:13:57,311  WARN FEMUtils:96 origEndTime=21900.0; newEndTime=1.0
2018-07-29 19:13:57,311  WARN FEMUtils:96 origEndTime=21900.0; newEndTime=1.0
2018-07-29 19:13:57,311  WARN FEMUtils:96 origEndTime=21900.0; newEndTime=1.0
2018-07-29 19:13:57,311  WARN FEMUtils:96 origEndTime=21900.0; newEndTime=1.0
2018-07-29 19:13:57,311  WARN FEMUtils:96 origEndTime=21900.0; newEndTime=1.0
2018-07-29 19:13:57,311  WARN FEMUtils:96 origEndTime=21900.0; newEndTime=1.0
2018-07-29 19:13:57,311  WARN FEMUtils:96 origEndTime=21900.0; newEndTime=1.0
2018-07-29 19:13:57,311  WARN FEMUtils:96 origEndTime=21900.0; newEndTime=1.0
2018-07-29 19:13:57,311  WARN FEMUtils:96 origEndTime=21900.0; newEndTime=1.0
2018-07-29 19:13:57,311  WARN FEMUtils:96 origEndTime=21900.0; newEndTime=1.0
2018-07-29 19:13:57,312  WARN FEMUtils:96 origEndTime=21900.0; newEndTime=1.0
2018-07-29 19:13:57,312  WARN FEMUtils:96 origEndTime=21900.0; newEndTime=1.0
2018-07-29 19:13:57,312  WARN FEMUtils:96 origEndTime=21900.0; newEndTime=1.0
2018-07-29 19:13:57,312  WARN FEMUtils:96 origEndTime=21900.0; newEndTime=1.0
2018-07-29 19:13:57,312  WARN FEMUtils:96 origEndTime=21900.0; newEndTime=1.0
2018-07-29 19:13:57,312  WARN FEMUtils:96 origEndTime=21900.0; newEndTime=1.0
2018-07-29 19:13:57,312  WARN FEMUtils:96 origEndTime=21900.0; newEndTime=1.0
2018-07-29 19:13:57,312  WARN FEMUtils:96 origEndTime=21900.0; newEndTime=1.0
2018-07-29 19:13:57,312  WARN FEMUtils:96 origEndTime=21900.0; newEndTime=1.0
2018-07-29 19:13:57,312  WARN FEMUtils:96 origEndTime=21900.0; newEndTime=1.0
2018-07-29 19:13:57,312  WARN FEMUtils:96 origEndTime=21900.0; newEndTime=1.0
2018-07-29 19:13:57,312  WARN FEMUtils:96 origEndTime=21900.0; newEndTime=1.0
2018-07-29 19:13:57,312  WARN FEMUtils:96 origEndTime=21900.0; newEndTime=1.0
2018-07-29 19:13:57,312  WARN FEMUtils:96 origEndTime=21900.0; newEndTime=1.0
2018-07-29 19:13:57,313  WARN FEMUtils:96 origEndTime=21900.0; newEndTime=1.0
2018-07-29 19:13:57,313  WARN FEMUtils:96 origEndTime=21900.0; newEndTime=1.0
2018-07-29 19:13:57,313  WARN FEMUtils:96 origEndTime=21900.0; newEndTime=1.0
2018-07-29 19:13:57,313  WARN FEMUtils:96 origEndTime=21900.0; newEndTime=1.0
2018-07-29 19:13:57,313  WARN FEMUtils:96 origEndTime=21900.0; newEndTime=1.0
2018-07-29 19:13:57,313  WARN FEMUtils:96 origEndTime=21900.0; newEndTime=1.0
2018-07-29 19:13:57,313  WARN FEMUtils:96 origEndTime=21900.0; newEndTime=1.0
2018-07-29 19:13:57,313  WARN FEMUtils:96 origEndTime=21900.0; newEndTime=1.0
2018-07-29 19:13:57,313  WARN FEMUtils:96 origEndTime=21900.0; newEndTime=1.0
2018-07-29 19:13:57,313  WARN FEMUtils:96 origEndTime=21900.0; newEndTime=1.0
2018-07-29 19:13:57,313  WARN FEMUtils:96 origEndTime=10500.0; newEndTime=1.0
2018-07-29 19:13:57,313  WARN FEMUtils:96 origEndTime=10500.0; newEndTime=1.0
2018-07-29 19:13:57,313  WARN FEMUtils:96 origEndTime=10500.0; newEndTime=1.0
2018-07-29 19:13:57,313  WARN FEMUtils:96 origEndTime=10500.0; newEndTime=1.0
2018-07-29 19:13:57,314  WARN FEMUtils:96 origEndTime=10500.0; newEndTime=1.0
2018-07-29 19:13:57,314  WARN FEMUtils:96 origEndTime=10500.0; newEndTime=1.0
2018-07-29 19:13:57,314  WARN FEMUtils:96 origEndTime=10500.0; newEndTime=1.0
2018-07-29 19:13:57,314  WARN FEMUtils:96 origEndTime=10500.0; newEndTime=1.0
2018-07-29 19:13:57,314  WARN FEMUtils:96 origEndTime=10500.0; newEndTime=1.0
2018-07-29 19:13:57,314  WARN FEMUtils:96 origEndTime=10500.0; newEndTime=1.0
2018-07-29 19:13:57,314  WARN FEMUtils:96 origEndTime=10500.0; newEndTime=1.0
2018-07-29 19:13:57,314  WARN FEMUtils:96 origEndTime=10500.0; newEndTime=1.0
2018-07-29 19:13:57,314  WARN FEMUtils:96 origEndTime=10500.0; newEndTime=1.0
2018-07-29 19:13:57,314  WARN FEMUtils:96 origEndTime=21900.0; newEndTime=1.0
2018-07-29 19:13:57,314  WARN FEMUtils:96 origEndTime=21900.0; newEndTime=1.0
2018-07-29 19:13:57,314  WARN FEMUtils:96 origEndTime=21900.0; newEndTime=1.0
2018-07-29 19:13:57,314  WARN FEMUtils:96 origEndTime=21900.0; newEndTime=1.0
2018-07-29 19:13:57,314  WARN FEMUtils:96 origEndTime=21900.0; newEndTime=1.0
2018-07-29 19:13:57,314  WARN FEMUtils:96 origEndTime=21900.0; newEndTime=1.0
2018-07-29 19:13:57,315  WARN FEMUtils:96 origEndTime=21900.0; newEndTime=1.0
2018-07-29 19:13:57,315  WARN FEMUtils:96 origEndTime=21900.0; newEndTime=1.0
2018-07-29 19:13:57,315  WARN FEMUtils:96 origEndTime=21900.0; newEndTime=1.0
2018-07-29 19:13:57,315  WARN FEMUtils:96 origEndTime=21900.0; newEndTime=1.0
2018-07-29 19:13:57,315  WARN FEMUtils:96 origEndTime=21900.0; newEndTime=1.0
2018-07-29 19:13:57,315  WARN FEMUtils:96 origEndTime=21900.0; newEndTime=1.0
2018-07-29 19:13:57,315  WARN FEMUtils:96 origEndTime=21900.0; newEndTime=1.0
2018-07-29 19:13:57,315  WARN FEMUtils:96 origEndTime=21900.0; newEndTime=1.0
2018-07-29 19:13:57,315  WARN FEMUtils:96 origEndTime=21900.0; newEndTime=1.0
2018-07-29 19:13:57,315  WARN FEMUtils:96 origEndTime=21900.0; newEndTime=1.0
2018-07-29 19:13:57,315  WARN FEMUtils:96 origEndTime=21900.0; newEndTime=1.0
2018-07-29 19:13:57,315  WARN FEMUtils:96 origEndTime=21900.0; newEndTime=1.0
2018-07-29 19:13:57,315  WARN FEMUtils:96 origEndTime=21900.0; newEndTime=1.0
2018-07-29 19:13:57,315  WARN FEMUtils:96 origEndTime=21900.0; newEndTime=1.0
2018-07-29 19:13:57,315  WARN FEMUtils:96 origEndTime=21900.0; newEndTime=1.0
2018-07-29 19:13:57,316  WARN FEMUtils:96 origEndTime=21900.0; newEndTime=1.0
2018-07-29 19:13:57,316  WARN FEMUtils:96 origEndTime=21900.0; newEndTime=1.0
2018-07-29 19:13:57,316  WARN FEMUtils:96 origEndTime=21900.0; newEndTime=1.0
2018-07-29 19:13:57,316  WARN FEMUtils:96 origEndTime=21900.0; newEndTime=1.0
2018-07-29 19:13:57,316  WARN FEMUtils:96 origEndTime=21900.0; newEndTime=1.0
2018-07-29 19:13:57,316  WARN FEMUtils:96 origEndTime=21900.0; newEndTime=1.0
2018-07-29 19:13:57,316  WARN FEMUtils:96 origEndTime=21900.0; newEndTime=1.0
2018-07-29 19:13:57,316  WARN FEMUtils:96 origEndTime=21900.0; newEndTime=1.0
2018-07-29 19:13:57,316  WARN FEMUtils:96 origEndTime=21900.0; newEndTime=1.0
2018-07-29 19:13:57,316  WARN FEMUtils:96 origEndTime=21900.0; newEndTime=1.0
2018-07-29 19:13:57,316  WARN FEMUtils:96 origEndTime=21900.0; newEndTime=1.0
2018-07-29 19:13:57,316  WARN FEMUtils:96 origEndTime=21900.0; newEndTime=1.0
2018-07-29 19:13:57,316  WARN FEMUtils:96 origEndTime=21900.0; newEndTime=1.0
2018-07-29 19:13:57,316  WARN FEMUtils:96 origEndTime=21900.0; newEndTime=1.0
2018-07-29 19:13:57,317  WARN FEMUtils:96 origEndTime=21900.0; newEndTime=1.0
2018-07-29 19:13:57,317  WARN FEMUtils:96 origEndTime=21900.0; newEndTime=1.0
2018-07-29 19:13:57,317  WARN FEMUtils:96 origEndTime=21900.0; newEndTime=1.0
2018-07-29 19:13:57,317  WARN FEMUtils:96 origEndTime=21900.0; newEndTime=1.0
2018-07-29 19:13:57,317  WARN FEMUtils:96 origEndTime=21900.0; newEndTime=1.0
2018-07-29 19:13:57,317  WARN FEMUtils:96 origEndTime=21900.0; newEndTime=1.0
2018-07-29 19:13:57,317  WARN FEMUtils:96 origEndTime=21900.0; newEndTime=1.0
2018-07-29 19:13:57,317  WARN FEMUtils:96 origEndTime=21900.0; newEndTime=1.0
2018-07-29 19:13:57,317  WARN FEMUtils:96 origEndTime=21900.0; newEndTime=1.0
2018-07-29 19:13:57,317  WARN FEMUtils:96 origEndTime=21900.0; newEndTime=1.0
2018-07-29 19:13:57,317  WARN FEMUtils:96 origEndTime=21900.0; newEndTime=1.0
2018-07-29 19:13:57,317  WARN FEMUtils:96 origEndTime=21900.0; newEndTime=1.0
2018-07-29 19:13:57,318  WARN FEMUtils:96 origEndTime=21900.0; newEndTime=1.0
2018-07-29 19:13:57,318  WARN FEMUtils:96 origEndTime=21900.0; newEndTime=1.0
2018-07-29 19:13:57,318  WARN FEMUtils:96 origEndTime=21900.0; newEndTime=1.0
2018-07-29 19:13:57,318  WARN FEMUtils:96 origEndTime=21900.0; newEndTime=1.0
2018-07-29 19:13:57,318  WARN FEMUtils:96 origEndTime=21900.0; newEndTime=1.0
2018-07-29 19:13:57,318  WARN FEMUtils:96 origEndTime=21900.0; newEndTime=1.0
2018-07-29 19:13:57,318  WARN FEMUtils:96 origEndTime=21900.0; newEndTime=1.0
2018-07-29 19:13:57,318  WARN FEMUtils:96 origEndTime=21900.0; newEndTime=1.0
2018-07-29 19:13:57,318  WARN FEMUtils:96 origEndTime=21900.0; newEndTime=1.0
2018-07-29 19:13:57,318  WARN FEMUtils:96 origEndTime=21900.0; newEndTime=1.0
2018-07-29 19:13:57,318  WARN FEMUtils:96 origEndTime=21900.0; newEndTime=1.0
2018-07-29 19:13:57,318  WARN FEMUtils:96 origEndTime=21900.0; newEndTime=1.0
2018-07-29 19:13:57,318  WARN FEMUtils:96 origEndTime=21900.0; newEndTime=1.0
2018-07-29 19:13:57,318  WARN FEMUtils:96 origEndTime=21900.0; newEndTime=1.0
2018-07-29 19:13:57,318  WARN FEMUtils:96 origEndTime=21900.0; newEndTime=1.0
2018-07-29 19:13:57,319  WARN FEMUtils:96 origEndTime=21900.0; newEndTime=1.0
2018-07-29 19:13:57,319  WARN FEMUtils:96 origEndTime=21900.0; newEndTime=1.0
2018-07-29 19:13:57,319  WARN FEMUtils:96 origEndTime=21900.0; newEndTime=1.0
2018-07-29 19:13:57,319  WARN FEMUtils:96 origEndTime=21900.0; newEndTime=1.0
2018-07-29 19:13:57,319  WARN FEMUtils:96 origEndTime=21900.0; newEndTime=1.0
2018-07-29 19:13:57,319  WARN FEMUtils:96 origEndTime=21900.0; newEndTime=1.0
2018-07-29 19:13:57,319  WARN FEMUtils:96 origEndTime=21900.0; newEndTime=1.0
2018-07-29 19:13:57,319  WARN FEMUtils:96 origEndTime=21900.0; newEndTime=1.0
2018-07-29 19:13:57,319  WARN FEMUtils:96 origEndTime=21900.0; newEndTime=1.0
2018-07-29 19:13:57,319  WARN FEMUtils:96 origEndTime=21900.0; newEndTime=1.0
2018-07-29 19:13:57,319  WARN FEMUtils:96 origEndTime=21900.0; newEndTime=1.0
2018-07-29 19:13:57,319  WARN FEMUtils:96 origEndTime=21900.0; newEndTime=1.0
2018-07-29 19:13:57,319  WARN FEMUtils:96 origEndTime=21900.0; newEndTime=1.0
2018-07-29 19:13:57,319  WARN FEMUtils:96 origEndTime=21900.0; newEndTime=1.0
2018-07-29 19:13:57,319  WARN FEMUtils:96 origEndTime=21900.0; newEndTime=1.0
2018-07-29 19:13:57,320  WARN FEMUtils:96 origEndTime=21900.0; newEndTime=1.0
2018-07-29 19:13:57,320  WARN FEMUtils:96 origEndTime=21900.0; newEndTime=1.0
2018-07-29 19:13:57,320  WARN FEMUtils:96 origEndTime=21900.0; newEndTime=1.0
2018-07-29 19:13:57,320  WARN FEMUtils:96 origEndTime=21900.0; newEndTime=1.0
2018-07-29 19:13:57,320  WARN FEMUtils:96 origEndTime=21900.0; newEndTime=1.0
2018-07-29 19:13:57,320  WARN FEMUtils:96 origEndTime=21900.0; newEndTime=1.0
2018-07-29 19:13:57,320  WARN FEMUtils:96 origEndTime=21900.0; newEndTime=1.0
2018-07-29 19:13:57,320  WARN FEMUtils:96 origEndTime=21900.0; newEndTime=1.0
2018-07-29 19:13:57,320  WARN FEMUtils:96 origEndTime=21900.0; newEndTime=1.0
2018-07-29 19:13:57,320  WARN FEMUtils:96 origEndTime=21900.0; newEndTime=1.0
2018-07-29 19:13:57,320  WARN FEMUtils:96 origEndTime=21900.0; newEndTime=1.0
2018-07-29 19:13:57,320  WARN FEMUtils:96 origEndTime=21900.0; newEndTime=1.0
2018-07-29 19:13:57,320  WARN FEMUtils:96 origEndTime=21900.0; newEndTime=1.0
2018-07-29 19:13:57,320  WARN FEMUtils:96 origEndTime=21900.0; newEndTime=1.0
2018-07-29 19:13:57,321  WARN FEMUtils:96 origEndTime=21900.0; newEndTime=1.0
2018-07-29 19:13:57,321  WARN FEMUtils:96 origEndTime=21900.0; newEndTime=1.0
2018-07-29 19:13:57,321  WARN FEMUtils:96 origEndTime=21900.0; newEndTime=1.0
2018-07-29 19:13:57,321  WARN FEMUtils:96 origEndTime=21900.0; newEndTime=1.0
2018-07-29 19:13:57,321  WARN FEMUtils:96 origEndTime=21900.0; newEndTime=1.0
2018-07-29 19:13:57,321  WARN FEMUtils:96 origEndTime=21900.0; newEndTime=1.0
2018-07-29 19:13:57,321  WARN FEMUtils:96 origEndTime=21900.0; newEndTime=1.0
2018-07-29 19:13:57,321  WARN FEMUtils:96 origEndTime=21900.0; newEndTime=1.0
2018-07-29 19:13:57,321  WARN FEMUtils:96 origEndTime=21900.0; newEndTime=1.0
2018-07-29 19:13:57,321  WARN FEMUtils:96 origEndTime=21900.0; newEndTime=1.0
2018-07-29 19:13:57,321  WARN FEMUtils:96 origEndTime=21900.0; newEndTime=1.0
2018-07-29 19:13:57,321  WARN FEMUtils:96 origEndTime=21900.0; newEndTime=1.0
2018-07-29 19:13:57,321  WARN FEMUtils:96 origEndTime=21900.0; newEndTime=1.0
2018-07-29 19:13:57,321  WARN FEMUtils:96 origEndTime=21900.0; newEndTime=1.0
2018-07-29 19:13:57,321  WARN FEMUtils:96 origEndTime=21900.0; newEndTime=1.0
2018-07-29 19:13:57,322  WARN FEMUtils:96 origEndTime=21900.0; newEndTime=1.0
2018-07-29 19:13:57,322  WARN FEMUtils:96 origEndTime=21900.0; newEndTime=1.0
2018-07-29 19:13:57,322  WARN FEMUtils:96 origEndTime=21900.0; newEndTime=1.0
2018-07-29 19:13:57,322  WARN FEMUtils:96 origEndTime=21900.0; newEndTime=1.0
2018-07-29 19:13:57,322  WARN FEMUtils:96 origEndTime=21900.0; newEndTime=1.0
2018-07-29 19:13:57,322  WARN FEMUtils:96 origEndTime=21900.0; newEndTime=1.0
[...]
2018-07-29 19:14:30,620  INFO Gbl:57 used RAM: 261036160B = 254918kB = 248MB  free: 1289807744B = 1230MB  total: 1550843904B = 1479MB
2018-07-29 19:14:30,773  INFO QNetsimEngine:347 SIMULATION (QNetsimEngine) AT 55:00:00 : #links=40 #nodes=8
2018-07-29 19:14:30,773  INFO QSim:506 SIMULATION (NEW QSim) AT 55:00:00 : #Veh=83 lost=0 simT=198000.0s realT=18s; (s/r): 11000.0
2018-07-29 19:14:30,774  INFO Gbl:57 used RAM: 273510544B = 267100kB = 260MB  free: 1277333360B = 1218MB  total: 1550843904B = 1479MB
2018-07-29 19:14:30,923  INFO QNetsimEngine:347 SIMULATION (QNetsimEngine) AT 56:00:00 : #links=36 #nodes=6
2018-07-29 19:14:30,923  INFO QSim:506 SIMULATION (NEW QSim) AT 56:00:00 : #Veh=74 lost=0 simT=201600.0s realT=18s; (s/r): 11200.0
2018-07-29 19:14:30,923  INFO Gbl:57 used RAM: 273510544B = 267100kB = 260MB  free: 1277333360B = 1218MB  total: 1550843904B = 1479MB
2018-07-29 19:14:31,072  INFO QNetsimEngine:347 SIMULATION (QNetsimEngine) AT 57:00:00 : #links=36 #nodes=6
2018-07-29 19:14:31,072  INFO QSim:506 SIMULATION (NEW QSim) AT 57:00:00 : #Veh=69 lost=0 simT=205200.0s realT=19s; (s/r): 10800.0
2018-07-29 19:14:31,072  INFO Gbl:57 used RAM: 273510544B = 267100kB = 260MB  free: 1277333360B = 1218MB  total: 1550843904B = 1479MB
2018-07-29 19:14:31,216  INFO QNetsimEngine:347 SIMULATION (QNetsimEngine) AT 58:00:00 : #links=36 #nodes=5
2018-07-29 19:14:31,216  INFO QSim:506 SIMULATION (NEW QSim) AT 58:00:00 : #Veh=67 lost=0 simT=208800.0s realT=19s; (s/r): 10989.473684210527
2018-07-29 19:14:31,216  INFO Gbl:57 used RAM: 277211512B = 270714kB = 264MB  free: 1273632392B = 1214MB  total: 1550843904B = 1479MB
2018-07-29 19:14:31,358  INFO QNetsimEngine:347 SIMULATION (QNetsimEngine) AT 59:00:00 : #links=31 #nodes=2
2018-07-29 19:14:31,358  INFO QSim:506 SIMULATION (NEW QSim) AT 59:00:00 : #Veh=58 lost=0 simT=212400.0s realT=19s; (s/r): 11178.947368421053
2018-07-29 19:14:31,358  INFO Gbl:57 used RAM: 288622832B = 281858kB = 275MB  free: 1262221072B = 1203MB  total: 1550843904B = 1479MB
2018-07-29 19:14:31,496  INFO QNetsimEngine:347 SIMULATION (QNetsimEngine) AT 60:00:00 : #links=23 #nodes=2
2018-07-29 19:14:31,496  INFO QSim:506 SIMULATION (NEW QSim) AT 60:00:00 : #Veh=50 lost=0 simT=216000.0s realT=19s; (s/r): 11368.421052631578
2018-07-29 19:14:31,496  INFO Gbl:57 used RAM: 288622832B = 281858kB = 275MB  free: 1262221072B = 1203MB  total: 1550843904B = 1479MB
2018-07-29 19:14:31,634  INFO QNetsimEngine:347 SIMULATION (QNetsimEngine) AT 61:00:00 : #links=24 #nodes=0
2018-07-29 19:14:31,634  INFO QSim:506 SIMULATION (NEW QSim) AT 61:00:00 : #Veh=46 lost=0 simT=219600.0s realT=19s; (s/r): 11557.894736842105
2018-07-29 19:14:31,634  INFO Gbl:57 used RAM: 288622832B = 281858kB = 275MB  free: 1262221072B = 1203MB  total: 1550843904B = 1479MB
2018-07-29 19:14:31,769  INFO QNetsimEngine:347 SIMULATION (QNetsimEngine) AT 62:00:00 : #links=25 #nodes=3
2018-07-29 19:14:31,769  INFO QSim:506 SIMULATION (NEW QSim) AT 62:00:00 : #Veh=37 lost=0 simT=223200.0s realT=19s; (s/r): 11747.368421052632
2018-07-29 19:14:31,769  INFO Gbl:57 used RAM: 292323792B = 285472kB = 278MB  free: 1258520112B = 1200MB  total: 1550843904B = 1479MB
2018-07-29 19:14:31,905  INFO QNetsimEngine:347 SIMULATION (QNetsimEngine) AT 63:00:00 : #links=19 #nodes=2
2018-07-29 19:14:31,905  INFO QSim:506 SIMULATION (NEW QSim) AT 63:00:00 : #Veh=24 lost=0 simT=226800.0s realT=19s; (s/r): 11936.842105263158
2018-07-29 19:14:31,905  INFO Gbl:57 used RAM: 304798176B = 297654kB = 290MB  free: 1246045728B = 1188MB  total: 1550843904B = 1479MB
2018-07-29 19:14:32,033  INFO QNetsimEngine:347 SIMULATION (QNetsimEngine) AT 64:00:00 : #links=9 #nodes=1
2018-07-29 19:14:32,033  INFO QSim:506 SIMULATION (NEW QSim) AT 64:00:00 : #Veh=11 lost=0 simT=230400.0s realT=20s; (s/r): 11520.0
2018-07-29 19:14:32,033  INFO Gbl:57 used RAM: 304798176B = 297654kB = 290MB  free: 1246045728B = 1188MB  total: 1550843904B = 1479MB
2018-07-29 19:14:32,157  INFO QNetsimEngine:347 SIMULATION (QNetsimEngine) AT 65:00:00 : #links=1 #nodes=0
2018-07-29 19:14:32,157  INFO QSim:506 SIMULATION (NEW QSim) AT 65:00:00 : #Veh=2 lost=0 simT=234000.0s realT=20s; (s/r): 11700.0
2018-07-29 19:14:32,158  INFO Gbl:57 used RAM: 304798176B = 297654kB = 290MB  free: 1246045728B = 1188MB  total: 1550843904B = 1479MB
2018-07-29 19:14:32,188  INFO Gbl:190 Thread performance: Thread=class org.matsim.core.events.SimStepParallelEventsManagerImpl$ProcessEventsRunnable0  cpu-time=2.667756sec
2018-07-29 19:14:32,188  INFO AbstractController$9:220 ### ITERATION 0 fires after mobsim event
2018-07-29 19:14:32,188  INFO ControlerListenerManagerImpl:248 calling notifyAfterMobsim on org.matsim.analysis.LegTimesControlerListener
2018-07-29 19:14:32,188  INFO LegTimesControlerListener:50 [0] average trip (probably: leg) duration is: 95961 seconds = 26:39:21
2018-07-29 19:14:32,188  INFO ControlerListenerManagerImpl:248 calling notifyAfterMobsim on org.matsim.contrib.decongestion.DecongestionControlerListener
2018-07-29 19:14:32,341  INFO CongestionInfoWriter:53 Writing csv file...
2018-07-29 19:14:32,494  INFO CongestionInfoWriter:87 Output written to test/output/femproto/run/DifferentVariantsTestIT/test//justRunInitialPlansFile_allDepartAtMidnight/ITERS/it.0/delays_perLinkAndTimeBin.csv
2018-07-29 19:14:32,494  INFO CongestionInfoWriter:137 Writing csv file...
2018-07-29 19:14:32,613  INFO CongestionInfoWriter:171 Output written to test/output/femproto/run/DifferentVariantsTestIT/test//justRunInitialPlansFile_allDepartAtMidnight/ITERS/it.0/toll_perLinkAndTimeBin.csv
2018-07-29 19:14:32,613  INFO CongestionInfoWriter:212 Writing csv file...
2018-07-29 19:14:35,263  INFO CongestionInfoWriter:261 Output written to test/output/femproto/run/DifferentVariantsTestIT/test//justRunInitialPlansFile_allDepartAtMidnight/ITERS/it.0/0.decongestion_info_via.csv.gz
2018-07-29 19:14:35,264  INFO ControlerListenerManagerImpl:248 calling notifyAfterMobsim on org.matsim.core.scoring.EventsToActivities$1
2018-07-29 19:14:35,265  WARN CharyparNagelActivityScoring:252 The first and the last activity do not have the same type. 
2018-07-29 19:14:35,265  WARN CharyparNagelActivityScoring:253 Will score the first activity from midnight to its end, and the last activity from its start to midnight.
2018-07-29 19:14:35,265  WARN CharyparNagelActivityScoring:254 Because of the nonlinear function, this is not the same as scoring from start to end.
2018-07-29 19:14:35,265  WARN CharyparNagelActivityScoring:255 first activity: [type=evac][coord=null][linkId=15806-11066][startTime=undefined][endTime=00:00:01][duration=undefined][facilityId=null]
2018-07-29 19:14:35,265  WARN CharyparNagelActivityScoring:256 last activity: [type=safe][coord=null][linkId=10958-13225][startTime=03:45:43][endTime=undefined][duration=undefined][facilityId=null]
2018-07-29 19:14:35,266  WARN CharyparNagelActivityScoring:257 This may also happen when plans are not completed when the simulation ends.
2018-07-29 19:14:35,266  WARN CharyparNagelActivityScoring:259 Additional warnings of this type are suppressed.
2018-07-29 19:14:35,267  INFO ControlerListenerManagerImpl:251 [it.0] all ControlerAfterMobsimListeners called.
2018-07-29 19:14:35,267  INFO AbstractController$4:149 ### ITERATION 0 fires scoring event
2018-07-29 19:14:35,267  INFO ControlerListenerManagerImpl:183 calling notifyScoring on org.matsim.core.scoring.PlansScoringImpl
2018-07-29 19:14:35,269  INFO NewScoreAssignerImpl:36 it: 0 msaStart: 0
2018-07-29 19:14:35,269  INFO ControlerListenerManagerImpl:194 [it.0] all ControlerScoringListeners called.
2018-07-29 19:14:35,269  INFO AbstractController$5:157 ### ITERATION 0 fires iteration end event
2018-07-29 19:14:35,269  INFO ControlerListenerManagerImpl:160 calling notifyIterationEnds on org.matsim.core.controler.corelisteners.EventsHandlingImpl
2018-07-29 19:14:35,270  INFO EventsManagerImpl:161 removing Event-Handler: org.matsim.core.events.algorithms.EventWriterXML
2018-07-29 19:14:35,271  INFO EventsManagerImpl:161 removing Event-Handler: org.matsim.core.events.algorithms.EventWriterXML
2018-07-29 19:14:35,271  INFO ControlerListenerManagerImpl:160 calling notifyIterationEnds on org.matsim.core.scoring.PlansScoringImpl
2018-07-29 19:14:35,271  INFO PopulationImpl:112  person # 1
2018-07-29 19:14:35,272  INFO PopulationImpl:112  person # 4
2018-07-29 19:14:35,272  INFO PopulationImpl:112  person # 16
2018-07-29 19:14:35,272  INFO PopulationImpl:112  person # 64
2018-07-29 19:14:35,272  INFO PopulationImpl:112  person # 256
2018-07-29 19:14:35,273  INFO Counter:70 [PopulationWriter] dumped person # 1
2018-07-29 19:14:35,273  INFO Counter:70 [PopulationWriter] dumped person # 2
2018-07-29 19:14:35,273  INFO Counter:70 [PopulationWriter] dumped person # 4
2018-07-29 19:14:35,273  INFO Counter:70 [PopulationWriter] dumped person # 8
2018-07-29 19:14:35,274  INFO Counter:70 [PopulationWriter] dumped person # 16
2018-07-29 19:14:35,274  INFO Counter:70 [PopulationWriter] dumped person # 32
2018-07-29 19:14:35,275  INFO Counter:70 [PopulationWriter] dumped person # 64
2018-07-29 19:14:35,276  INFO Counter:70 [PopulationWriter] dumped person # 128
2018-07-29 19:14:35,279  INFO Counter:70 [PopulationWriter] dumped person # 256
2018-07-29 19:14:35,286  INFO Counter:70 [PopulationWriter] dumped person # 512
2018-07-29 19:14:35,293  INFO PopulationWriter:139 Population written to: test/output/femproto/run/DifferentVariantsTestIT/test//justRunInitialPlansFile_allDepartAtMidnight/ITERS/it.0/0.experienced_plans.xml.gz
2018-07-29 19:14:35,294  INFO Counter:76 [PopulationWriter] dumped person # 802
2018-07-29 19:14:35,297  INFO ControlerListenerManagerImpl:167 calling notifyIterationEnds on org.matsim.counts.CountsControlerListener
2018-07-29 19:14:35,297  INFO ControlerListenerManagerImpl:167 calling notifyIterationEnds on org.matsim.analysis.ModeStatsControlerListener
2018-07-29 19:14:35,298  INFO ModeStatsControlerListener:155 -- mode share of mode bike = 0.0
2018-07-29 19:14:35,298  INFO ModeStatsControlerListener:155 -- mode share of mode car = 1.0
2018-07-29 19:14:35,299  INFO ModeStatsControlerListener:155 -- mode share of mode other = 0.0
2018-07-29 19:14:35,299  INFO ModeStatsControlerListener:155 -- mode share of mode pt = 0.0
2018-07-29 19:14:35,299  INFO ModeStatsControlerListener:155 -- mode share of mode ride = 0.0
2018-07-29 19:14:35,299  INFO ModeStatsControlerListener:155 -- mode share of mode walk = 0.0
2018-07-29 19:14:35,299  INFO ControlerListenerManagerImpl:167 calling notifyIterationEnds on org.matsim.analysis.ScoreStatsControlerListener
2018-07-29 19:14:35,300  INFO ScoreStatsControlerListener:191 -- avg. score of the executed plan of each agent: -148546.81758792428
2018-07-29 19:14:35,300  INFO ScoreStatsControlerListener:192 -- avg. score of the worst plan of each agent: -148546.81758792428
2018-07-29 19:14:35,301  INFO ScoreStatsControlerListener:193 -- avg. of the avg. plan score per agent: -148546.81758792428
2018-07-29 19:14:35,301  INFO ScoreStatsControlerListener:194 -- avg. score of the best plan of each agent: -148546.81758792428
2018-07-29 19:14:35,301  INFO ControlerListenerManagerImpl:167 calling notifyIterationEnds on org.matsim.analysis.TravelDistanceStatsControlerListener
2018-07-29 19:14:35,301  INFO TravelDistanceStats:128 [TravelDistanceStats] using 2 thread(s).
2018-07-29 19:14:35,302  INFO TravelDistanceStats:141 [TravelDistanceStats] all threads finished.
2018-07-29 19:14:35,302  INFO TravelDistanceStats:161 -- average of the average leg distance per plan (executed plans only): 66544.46107954124
2018-07-29 19:14:35,302  INFO TravelDistanceStats:162 (TravelDistanceStats takes an average over all legs where the simulation reports travelled distances. These are car legs, pt legs,
2018-07-29 19:14:35,302  INFO TravelDistanceStats:163 (and teleported legs whose route contains a distance.)
2018-07-29 19:14:35,302  INFO ControlerListenerManagerImpl:167 calling notifyIterationEnds on org.matsim.analysis.LegHistogramListener
2018-07-29 19:14:35,303  INFO LegHistogramListener:72 number of legs:	802	100%
2018-07-29 19:14:35,303  INFO LegHistogramListener:79 number of car legs:	802	100.0%
2018-07-29 19:14:35,483  INFO ControlerListenerManagerImpl:167 calling notifyIterationEnds on org.matsim.analysis.LinkStatsControlerListener
2018-07-29 19:14:35,483  INFO ControlerListenerManagerImpl:167 calling notifyIterationEnds on org.matsim.contrib.decongestion.DecongestionControlerListener
2018-07-29 19:14:35,484  INFO CongestionInfoWriter:297 Output written to test/output/femproto/run/DifferentVariantsTestIT/test//justRunInitialPlansFile_allDepartAtMidnight/congestionInfo.csv
2018-07-29 19:14:35,607  INFO ControlerListenerManagerImpl:167 calling notifyIterationEnds on femproto.run.OutputEvents2TravelDiaries
2018-07-29 19:14:35,608  INFO Counter:70 Output lines written: 1
2018-07-29 19:14:35,608  INFO Counter:70 Output lines written: 2
2018-07-29 19:14:35,608  INFO Counter:70 Output lines written: 4
2018-07-29 19:14:35,608  INFO Counter:70 Output lines written: 8
2018-07-29 19:14:35,609  INFO Counter:70 Output lines written: 16
2018-07-29 19:14:35,610  INFO Counter:70 Output lines written: 32
2018-07-29 19:14:35,611  INFO Counter:70 Output lines written: 64
2018-07-29 19:14:35,613  INFO Counter:70 Output lines written: 128
2018-07-29 19:14:35,617  INFO Counter:70 Output lines written: 256
2018-07-29 19:14:35,624  INFO Counter:70 Output lines written: 512
2018-07-29 19:14:35,637  INFO Counter:70 Output lines written: 1024
2018-07-29 19:14:35,653  INFO Counter:76 Output lines written: 1604
2018-07-29 19:14:35,653  INFO ControlerListenerManagerImpl:167 calling notifyIterationEnds on org.matsim.contrib.analysis.kai.KaiAnalysisListener
2018-07-29 19:14:35,670  INFO ControlerListenerManagerImpl:171 [it.0] all ControlerIterationEndsListeners called.
2018-07-29 19:14:35,766  INFO AbstractController:167 ### ITERATION 0 ENDS
2018-07-29 19:14:35,766  INFO AbstractController:168 ###################################################
2018-07-29 19:14:35,766  INFO MatsimRuntimeModifications:58 S H U T D O W N   ---   start shutdown.
2018-07-29 19:14:35,766  INFO ControlerListenerManagerImpl:121 calling notifyShutdown on org.matsim.core.controler.corelisteners.EventsHandlingImpl
2018-07-29 19:14:35,767  INFO ControlerListenerManagerImpl:121 calling notifyShutdown on org.matsim.core.controler.corelisteners.DumpDataAtEndImpl
2018-07-29 19:14:35,767  INFO Counter:70 [PopulationWriter] dumped person # 1
2018-07-29 19:14:35,768  INFO Counter:70 [PopulationWriter] dumped person # 2
2018-07-29 19:14:35,768  INFO Counter:70 [PopulationWriter] dumped person # 4
2018-07-29 19:14:35,769  INFO Counter:70 [PopulationWriter] dumped person # 8
2018-07-29 19:14:35,771  INFO Counter:70 [PopulationWriter] dumped person # 16
2018-07-29 19:14:35,776  INFO Counter:70 [PopulationWriter] dumped person # 32
2018-07-29 19:14:35,785  INFO Counter:70 [PopulationWriter] dumped person # 64
2018-07-29 19:14:35,799  INFO Counter:70 [PopulationWriter] dumped person # 128
2018-07-29 19:14:35,829  INFO Counter:70 [PopulationWriter] dumped person # 256
2018-07-29 19:14:35,886  INFO Counter:70 [PopulationWriter] dumped person # 512
2018-07-29 19:14:35,947  INFO PopulationWriter:139 Population written to: test/output/femproto/run/DifferentVariantsTestIT/test//justRunInitialPlansFile_allDepartAtMidnight/output_plans.xml.gz
2018-07-29 19:14:35,947  INFO Counter:76 [PopulationWriter] dumped person # 802
2018-07-29 19:14:35,952  INFO NetworkWriter:68 Writing network to file: test/output/femproto/run/DifferentVariantsTestIT/test//justRunInitialPlansFile_allDepartAtMidnight/output_network.xml.gz...
2018-07-29 19:14:36,057  INFO NetworkWriter:71 done.
2018-07-29 19:14:36,059  INFO Config:569 setting context to [file:/Users/kainagel/git/au-flood-evacuation/]
2018-07-29 19:14:36,060  INFO Config:569 setting context to [file:/Users/kainagel/git/au-flood-evacuation/]
2018-07-29 19:14:36,063  INFO Config:569 setting context to [file:/Users/kainagel/git/au-flood-evacuation/]
2018-07-29 19:14:36,065  INFO Config:569 setting context to [file:/Users/kainagel/git/au-flood-evacuation/]
2018-07-29 19:14:36,067  INFO Config:569 setting context to [file:/Users/kainagel/git/au-flood-evacuation/]
2018-07-29 19:14:36,069  INFO Config:569 setting context to [file:/Users/kainagel/git/au-flood-evacuation/]
2018-07-29 19:14:36,072  INFO Config:569 setting context to [file:/Users/kainagel/git/au-flood-evacuation/]
2018-07-29 19:14:36,073  INFO Config:569 setting context to [file:/Users/kainagel/git/au-flood-evacuation/]
2018-07-29 19:14:36,076  INFO Config:569 setting context to [file:/Users/kainagel/git/au-flood-evacuation/]
2018-07-29 19:14:36,078  INFO Config:569 setting context to [file:/Users/kainagel/git/au-flood-evacuation/]
2018-07-29 19:14:36,080  INFO Config:569 setting context to [file:/Users/kainagel/git/au-flood-evacuation/]
2018-07-29 19:14:36,081  INFO Config:569 setting context to [file:/Users/kainagel/git/au-flood-evacuation/]
2018-07-29 19:14:36,084  INFO Config:569 setting context to [file:/Users/kainagel/git/au-flood-evacuation/]
2018-07-29 19:14:36,086  INFO Config:569 setting context to [file:/Users/kainagel/git/au-flood-evacuation/]
2018-07-29 19:14:36,091  INFO Config:569 setting context to [file:/Users/kainagel/git/au-flood-evacuation/]
2018-07-29 19:14:36,094  INFO Config:569 setting context to [file:/Users/kainagel/git/au-flood-evacuation/]
2018-07-29 19:14:36,095  INFO Config:569 setting context to [file:/Users/kainagel/git/au-flood-evacuation/]
2018-07-29 19:14:36,099  INFO Config:569 setting context to [file:/Users/kainagel/git/au-flood-evacuation/]
2018-07-29 19:14:36,101  INFO Config:569 setting context to [file:/Users/kainagel/git/au-flood-evacuation/]
2018-07-29 19:14:36,102  INFO Config:569 setting context to [file:/Users/kainagel/git/au-flood-evacuation/]
2018-07-29 19:14:36,104  INFO Config:569 setting context to [file:/Users/kainagel/git/au-flood-evacuation/]
2018-07-29 19:14:36,106  INFO Config:569 setting context to [file:/Users/kainagel/git/au-flood-evacuation/]
2018-07-29 19:14:36,108  INFO Config:569 setting context to [file:/Users/kainagel/git/au-flood-evacuation/]
2018-07-29 19:14:36,111  INFO Config:569 setting context to [file:/Users/kainagel/git/au-flood-evacuation/]
2018-07-29 19:14:36,113  INFO Config:569 setting context to [file:/Users/kainagel/git/au-flood-evacuation/]
2018-07-29 19:14:36,117  INFO Config:569 setting context to [file:/Users/kainagel/git/au-flood-evacuation/]
2018-07-29 19:14:36,119  INFO Config:569 setting context to [file:/Users/kainagel/git/au-flood-evacuation/]
2018-07-29 19:14:36,124  INFO VehicleWriterV1:55 Vehicles written to: test/output/femproto/run/DifferentVariantsTestIT/test//justRunInitialPlansFile_allDepartAtMidnight/output_vehicles.xml.gz
2018-07-29 19:14:36,124  INFO Counter:76 [HouseholdsWriter] dumped household # 0
2018-07-29 19:14:36,124  INFO LanesWriter:62 Using LaneDefinitionWriter20...
2018-07-29 19:14:36,124  INFO LanesWriter:71 writing to file: test/output/femproto/run/DifferentVariantsTestIT/test//justRunInitialPlansFile_allDepartAtMidnight/output_lanes.xml.gz
2018-07-29 19:14:36,151  INFO ControlerListenerManagerImpl:126 calling notifyShutdown on org.matsim.analysis.ModeStatsControlerListener
2018-07-29 19:14:36,152  INFO ControlerListenerManagerImpl:126 calling notifyShutdown on org.matsim.analysis.ScoreStatsControlerListener
2018-07-29 19:14:36,152  INFO ControlerListenerManagerImpl:126 calling notifyShutdown on org.matsim.analysis.TravelDistanceStatsControlerListener
2018-07-29 19:14:36,152  INFO ControlerListenerManagerImpl:129 all ControlerShutdownListeners called.
2018-07-29 19:14:36,152  INFO MatsimRuntimeModifications:81 S H U T D O W N   ---   shutdown completed.
2018-07-29 19:14:36,153  INFO OutputDirectoryLogging:146 closing the logfile, i.e. messages sent to the logger after this message are not written to the logfile.
