2018-04-27 09:51:37,537  INFO Gbl:59 JVM: 1.8.0_131; Oracle Corporation; mixed mode; 64-bit
2018-04-27 09:51:37,538  INFO Gbl:63 OS: Mac OS X; 10.12.6; x86_64
2018-04-27 09:51:37,538  INFO Gbl:66 CPU cores: 8
2018-04-27 09:51:37,538  INFO Gbl:67 max. Memory: 7132.5MB (7478968320B)
2018-04-27 09:51:37,539  INFO Gbl:105 MATSim-Build: r05a296e6228ba0d4de2c31906032e832551a8152 (2018-03-03 10:13:52)
2018-04-27 09:51:37,546  INFO ControlerListenerManagerImpl:107 calling notifyStartup on org.matsim.counts.CountsControlerListener
2018-04-27 09:51:37,546  INFO ControlerListenerManagerImpl:107 calling notifyStartup on org.matsim.analysis.ModeStatsControlerListener
2018-04-27 09:51:37,554  INFO NetworkImpl:167  node # 1
2018-04-27 09:51:37,555  INFO NetworkImpl:167  node # 4
2018-04-27 09:51:37,555  INFO NetworkImpl:167  node # 16
2018-04-27 09:51:37,555  INFO NetworkImpl:167  node # 64
2018-04-27 09:51:37,556  INFO NetworkImpl:167  node # 256
2018-04-27 09:51:37,557  INFO NetworkImpl:167  node # 1024
2018-04-27 09:51:37,561  INFO NetworkImpl:163  link # 1
2018-04-27 09:51:37,562  INFO NetworkImpl:163  link # 4
2018-04-27 09:51:37,563  INFO NetworkImpl:163  link # 16
2018-04-27 09:51:37,564  INFO NetworkImpl:163  link # 64
2018-04-27 09:51:37,566  INFO NetworkImpl:163  link # 256
2018-04-27 09:51:37,578  INFO NetworkImpl:163  link # 1024
2018-04-27 09:51:37,605  INFO NetworkImpl:163  link # 4096
2018-04-27 09:51:37,691  INFO ControlerListenerManagerImpl:107 calling notifyStartup on org.matsim.analysis.ScoreStatsControlerListener
2018-04-27 09:51:37,692  INFO ControlerListenerManagerImpl:110 all ControlerStartupListeners called.
2018-04-27 09:51:37,693  INFO ControlerUtils:58 config dump before iterations start
2018-04-27 09:51:37,698  INFO Config:561 setting context to [file:/Users/kainagel/git/au-flood-evacuation/scenarios/fem2016/]
2018-04-27 09:51:37,713  INFO ControlerUtils:62 

<?xml version="1.0" encoding="UTF-8"?>
<!DOCTYPE config SYSTEM "http://www.matsim.org/files/dtd/config_v2.dtd">
<config>
<!-- ====================================================================== -->
	<module name="FEM" >
	</module>
<!-- ====================================================================== -->
	<module name="JDEQSim" >
		<param name="carSize" value="7.5" />
		<param name="endTime" value="undefined" />
		<param name="flowCapacityFactor" value="1.0" />
		<param name="gapTravelSpeed" value="15.0" />
		<param name="minimumInFlowCapacity" value="1800.0" />
		<param name="squeezeTime" value="1800.0" />
		<param name="storageCapacityFactor" value="1.0" />
	</module>
<!-- ====================================================================== -->
	<module name="TimeAllocationMutator" >
		<!-- Default:true; Defines whether time mutation changes an activity's duration. -->
		<param name="mutationAffectsDuration" value="true" />
		<!-- Default:1800.0; Defines how many seconds a time mutation can maximally shift a time. -->
		<param name="mutationRange" value="1800.0" />
		<!-- false; Use individual settings for each subpopulation. If enabled but no settings are found, regular settings are uses as fallback. -->
		<param name="useIndividualSettingsForSubpopulations" value="false" />
	</module>
<!-- ====================================================================== -->
<!-- ====================================================================== -->
	<module name="changeMode" >
		<param name="ignoreCarAvailability" value="true" />
		<param name="modes" value="car,pt" />
	</module>
<!-- ====================================================================== -->
	<module name="controler" >
		<!-- Sets whether graphs showing some analyses should automatically be generated during the simulation. The generation of graphs usually takes a small amount of time that does not have any weight in big simulations, but add a significant overhead in smaller runs or in test cases where the graphical output is not even requested. -->
		<param name="createGraphs" value="true" />
		<!-- true if at the end of a run, plans, network, config etc should be dumped to a file -->
		<param name="dumpDataAtEnd" value="true" />
		<!-- Default=false. If enabled, the router takes travel times needed for turning moves into account. Cannot be used if the (Fast)AStarLandmarks routing or TravelTimeCalculator.separateModes is enabled. -->
		<param name="enableLinkToLinkRouting" value="false" />
		<!-- Default=xml; Specifies the file format for writing events. Currently supported: xml.
		Multiple values can be specified separated by commas (','). -->
		<param name="eventsFileFormat" value="xml" />
		<!-- Default=0;  -->
		<param name="firstIteration" value="0" />
		<!-- Default=1000;  -->
		<param name="lastIteration" value="0" />
		<!-- Defines which mobility simulation will be used. Currently supported: qsim JDEQSim 
		Depending on the chosen mobsim, you'll have to add additional config modules to configure the corresponding mobsim.
		For 'qsim', add a module 'qsim' to the config. -->
		<param name="mobsim" value="qsim" />
		<param name="outputDirectory" value="./output" />
		<!-- Possible values: failIfDirectoryExists, overwriteExistingFiles, deleteDirectoryIfExists -->
		<param name="overwriteFiles" value="deleteDirectoryIfExists" />
		<!-- The type of routing (least cost path) algorithm used, may have the values: Dijkstra, FastDijkstra, AStarLandmarks or FastAStarLandmarks -->
		<param name="routingAlgorithmType" value="Dijkstra" />
		<!-- An identifier for the current run which is used as prefix for output files and mentioned in output xml files etc. -->
		<param name="runId" value="null" />
		<!-- Comma-separated list of visualizer output file formats. `transims', `googleearth', and `otfvis'. -->
		<param name="snapshotFormat" value="" />
		<!-- iterationNumber % writeEventsInterval == 0 defines in which iterations events are written to a file. `0' disables events writing completely. -->
		<param name="writeEventsInterval" value="10" />
		<!-- iterationNumber % writePlansInterval == 0 defines (hopefully) in which iterations plans are written to a file. `0' disables plans writing completely.  Some plans in early iterations are always written -->
		<param name="writePlansInterval" value="10" />
		<!-- iterationNumber % writeSnapshotsInterval == 0 defines in which iterations snapshots are written to a file. `0' disables snapshots writing completely -->
		<param name="writeSnapshotsInterval" value="1" />
	</module>
<!-- ====================================================================== -->
	<module name="counts" >
		<!-- Transport modes that will be respected for the counts comparison. 'car' is default, which includes also bussed from the pt simulation module. Use this parameter in combination with 'filterModes' = true! -->
		<param name="analyzedModes" value="car" />
		<!-- Specifies over how many iterations the link volumes should be averaged that are used for the counts comparison. Use 1 or 0 to only use the link volumes of a single iteration. This values cannot be larger than the value specified for writeCountsInterval -->
		<param name="averageCountsOverIterations" value="5" />
		<!-- factor by which to re-scale the simulated values.  necessary when simulation runs with something different from 100%.  needs to be adapted manually -->
		<param name="countsScaleFactor" value="1.0" />
		<!-- distance to distanceFilterCenterNode to include counting stations. The unit of distance is the Euclidean distance implied by the coordinate system -->
		<param name="distanceFilter" value="null" />
		<!-- node id for center node of distance filter -->
		<param name="distanceFilterCenterNode" value="null" />
		<!-- If true, link counts from legs performed on modes not included in the 'analyzedModes' parameter are ignored. -->
		<param name="filterModes" value="false" />
		<!-- The Coordinates Reference System in which the coordinates are expressed in the input file. At import, the coordinates will be converted to the coordinate system defined in "global", and willbe converted back at export. If not specified, no conversion happens. -->
		<param name="inputCRS" value="null" />
		<!-- input file name to counts package -->
		<param name="inputCountsFile" value="null" />
		<!-- possible values: `html', `kml', `txt', `all' -->
		<param name="outputformat" value="txt" />
		<!-- Specifies how often the counts comparison should be calculated and written. -->
		<param name="writeCountsInterval" value="10" />
	</module>
<!-- ====================================================================== -->
	<module name="facilities" >
		<!-- If set to 'true', empty activity option will be created. -->
		<param name="addEmptyActivityOption" value="false" />
		<!-- Default is 'true'. In the case that a facility has no link assigned, the ActivityFacility can be assigned to the closest link. If there should be only one ActivityFacility per link and if no link-assignment should be done, set to 'false'.This will create a new ActivityFacility at the coordinate and the facility will not be assigned to a link. -->
		<param name="assigningLinksToFacilitiesIfMissing" value="true" />
		<!-- If set to 'true', opening time will be assigned to activity facilities from ActivityParams. Default is false. This will NOT override option 'addEmptyActivityOption'. -->
		<param name="assigningOpeningTime" value="false" />
		<!-- This defines how facilities should be created. Possible values: none fromFile setInScenario onePerActivityLocationInPlansFile  -->
		<param name="facilitiesSource" value="none" />
		<!-- A prefix to be used in activityFacility id. -->
		<param name="idPrefix" value="" />
		<!-- The Coordinates Reference System in which the coordinates are expressed in the input file. At import, the coordinates will be converted to the coordinate system defined in "global", and willbe converted back at export. If not specified, no conversion happens. -->
		<param name="inputCRS" value="null" />
		<param name="inputFacilitiesFile" value="null" />
		<param name="inputFacilityAttributesFile" value="null" />
		<!-- Sets whether all activities on a link should be collected within one ActivityFacility. Default is 'true'. If set to 'false', for each coordinate found in the population's activities a separate ActivityFacility will be created. -->
		<param name="oneFacilityPerLink" value="true" />
		<!-- If set to 'true' (which is the default), the link and coordinate attributes are replaced by null reference in the activities, as this information is now available via the facility. -->
		<param name="removingLinksAndCoordinates" value="true" />
	</module>
<!-- ====================================================================== -->
	<module name="global" >
		<param name="coordinateSystem" value="Atlantis" />
		<param name="insistingOnDeprecatedConfigVersion" value="true" />
		<!-- "global" number of threads.  This number is used, e.g., for replanning, but NOT in the mobsim.  This can typically be set to as many cores as you have available, or possibly even slightly more. -->
		<param name="numberOfThreads" value="2" />
		<param name="randomSeed" value="4711" />
	</module>
<!-- ====================================================================== -->
	<module name="households" >
		<param name="inputFile" value="null" />
		<param name="inputHouseholdAttributesFile" value="null" />
	</module>
<!-- ====================================================================== -->
	<module name="linkStats" >
		<!-- Specifies over how many iterations the link volumes should be averaged that are used for the link statistics. Use 1 or 0 to only use the link volumes of a single iteration. This values cannot be larger than the value specified for writeLinkStatsInterval -->
		<param name="averageLinkStatsOverIterations" value="5" />
		<!-- Specifies how often the link stats should be calculated and written. Use 0 to disable the generation of link stats. -->
		<param name="writeLinkStatsInterval" value="10" />
	</module>
<!-- ====================================================================== -->
	<module name="network" >
		<!-- The Coordinates Reference System in which the coordinates are expressed in the input file. At import, the coordinates will be converted to the coordinate system defined in "global", and willbe converted back at export. If not specified, no conversion happens. -->
		<param name="inputCRS" value="null" />
		<param name="inputChangeEventsFile" value="null" />
		<param name="inputNetworkFile" value="hn_net_ses_emme_2016_V12_network.xml.gz" />
		<param name="laneDefinitionsFile" value="null" />
		<param name="timeVariantNetwork" value="false" />
	</module>
<!-- ====================================================================== -->
	<module name="parallelEventHandling" >
		<!-- Estimated number of events during mobsim run. An optional optimization hint for the framework. -->
		<param name="estimatedNumberOfEvents" value="null" />
		<!-- Number of threads for parallel events handler. _null_ means the framework decides by itself. 0 is currently not possible. -->
		<param name="numberOfThreads" value="null" />
		<!-- If enabled, each event handler is assigned to its own thread. Note that enabling this feature disabled the numberOfThreads option! This feature is still experimental! -->
		<param name="oneThreadPerHandler" value="false" />
		<!-- If enabled, it is ensured that all events that are created during a time step of the mobility simulation are processed before the next time step is simulated. E.g. neccessary when within-day replanning is used. -->
		<param name="synchronizeOnSimSteps" value="true" />
	</module>
<!-- ====================================================================== -->
	<module name="planCalcScore" >
		<!-- logit model scale parameter. default: 1.  Has name and default value for historical reasons (see Bryan Raney's phd thesis). -->
		<param name="BrainExpBeta" value="1.0" />
		<param name="PathSizeLogitBeta" value="1.0" />
		<!-- fraction of iterations at which MSA score averaging is started. The matsim theory department suggests to use this together with switching off choice set innovation (where a similar switch exists), but it has not been tested yet. -->
		<param name="fractionOfIterationsToStartScoreMSA" value="null" />
		<!-- new_score = (1-learningRate)*old_score + learningRate * score_from_mobsim.  learning rates close to zero emulate score averaging, but slow down initial convergence -->
		<param name="learningRate" value="1.0" />
		<!-- There used to be a plateau between duration=0 and duration=zeroUtilityDuration. This caused durations to evolve to zero once they were below zeroUtilityDuration, causing problems.  Only use this switch if you need to be backwards compatible with some old results.  (changed nov'13) -->
		<param name="usingOldScoringBelowZeroUtilityDuration" value="false" />
		<!-- write a plans file in each iteration directory which contains what each agent actually did, and the score it received. -->
		<param name="writeExperiencedPlans" value="false" />
		<parameterset type="scoringParameters" >
			<param name="earlyDeparture" value="-0.0" />
			<param name="lateArrival" value="-18.0" />
			<param name="marginalUtilityOfMoney" value="1.0" />
			<param name="performing" value="6.0" />
			<param name="subpopulation" value="null" />
			<param name="utilityOfLineSwitch" value="-1.0" />
			<param name="waiting" value="-0.0" />
			<param name="waitingPt" value="-6.0" />
			<parameterset type="activityParams" >
				<param name="activityType" value="dummy" />
				<param name="closingTime" value="undefined" />
				<param name="earliestEndTime" value="undefined" />
				<param name="latestStartTime" value="undefined" />
				<param name="minimalDuration" value="undefined" />
				<param name="openingTime" value="undefined" />
				<param name="priority" value="1.0" />
				<param name="scoringThisActivityAtAll" value="true" />
				<!-- typical duration of activity.  needs to be defined and non-zero.  in sec. -->
				<param name="typicalDuration" value="02:00:00" />
				<!-- method to compute score at typical duration.  Options: | uniform | relative | Use uniform for backwards compatibility (all activities same score; higher proba to drop long acts). -->
				<param name="typicalDurationScoreComputation" value="relative" />
			</parameterset>
			<parameterset type="activityParams" >
				<param name="activityType" value="car interaction" />
				<param name="closingTime" value="undefined" />
				<param name="earliestEndTime" value="undefined" />
				<param name="latestStartTime" value="undefined" />
				<param name="minimalDuration" value="undefined" />
				<param name="openingTime" value="undefined" />
				<param name="priority" value="1.0" />
				<param name="scoringThisActivityAtAll" value="false" />
				<!-- typical duration of activity.  needs to be defined and non-zero.  in sec. -->
				<param name="typicalDuration" value="undefined" />
				<!-- method to compute score at typical duration.  Options: | uniform | relative | Use uniform for backwards compatibility (all activities same score; higher proba to drop long acts). -->
				<param name="typicalDurationScoreComputation" value="relative" />
			</parameterset>
			<parameterset type="activityParams" >
				<param name="activityType" value="pt interaction" />
				<param name="closingTime" value="undefined" />
				<param name="earliestEndTime" value="undefined" />
				<param name="latestStartTime" value="undefined" />
				<param name="minimalDuration" value="undefined" />
				<param name="openingTime" value="undefined" />
				<param name="priority" value="1.0" />
				<param name="scoringThisActivityAtAll" value="false" />
				<!-- typical duration of activity.  needs to be defined and non-zero.  in sec. -->
				<param name="typicalDuration" value="undefined" />
				<!-- method to compute score at typical duration.  Options: | uniform | relative | Use uniform for backwards compatibility (all activities same score; higher proba to drop long acts). -->
				<param name="typicalDurationScoreComputation" value="relative" />
			</parameterset>
			<parameterset type="activityParams" >
				<param name="activityType" value="bike interaction" />
				<param name="closingTime" value="undefined" />
				<param name="earliestEndTime" value="undefined" />
				<param name="latestStartTime" value="undefined" />
				<param name="minimalDuration" value="undefined" />
				<param name="openingTime" value="undefined" />
				<param name="priority" value="1.0" />
				<param name="scoringThisActivityAtAll" value="false" />
				<!-- typical duration of activity.  needs to be defined and non-zero.  in sec. -->
				<param name="typicalDuration" value="undefined" />
				<!-- method to compute score at typical duration.  Options: | uniform | relative | Use uniform for backwards compatibility (all activities same score; higher proba to drop long acts). -->
				<param name="typicalDurationScoreComputation" value="relative" />
			</parameterset>
			<parameterset type="activityParams" >
				<param name="activityType" value="other interaction" />
				<param name="closingTime" value="undefined" />
				<param name="earliestEndTime" value="undefined" />
				<param name="latestStartTime" value="undefined" />
				<param name="minimalDuration" value="undefined" />
				<param name="openingTime" value="undefined" />
				<param name="priority" value="1.0" />
				<param name="scoringThisActivityAtAll" value="false" />
				<!-- typical duration of activity.  needs to be defined and non-zero.  in sec. -->
				<param name="typicalDuration" value="undefined" />
				<!-- method to compute score at typical duration.  Options: | uniform | relative | Use uniform for backwards compatibility (all activities same score; higher proba to drop long acts). -->
				<param name="typicalDurationScoreComputation" value="relative" />
			</parameterset>
			<parameterset type="activityParams" >
				<param name="activityType" value="walk interaction" />
				<param name="closingTime" value="undefined" />
				<param name="earliestEndTime" value="undefined" />
				<param name="latestStartTime" value="undefined" />
				<param name="minimalDuration" value="undefined" />
				<param name="openingTime" value="undefined" />
				<param name="priority" value="1.0" />
				<param name="scoringThisActivityAtAll" value="false" />
				<!-- typical duration of activity.  needs to be defined and non-zero.  in sec. -->
				<param name="typicalDuration" value="undefined" />
				<!-- method to compute score at typical duration.  Options: | uniform | relative | Use uniform for backwards compatibility (all activities same score; higher proba to drop long acts). -->
				<param name="typicalDurationScoreComputation" value="relative" />
			</parameterset>
			<parameterset type="activityParams" >
				<param name="activityType" value="evac" />
				<param name="closingTime" value="undefined" />
				<param name="earliestEndTime" value="undefined" />
				<param name="latestStartTime" value="undefined" />
				<param name="minimalDuration" value="undefined" />
				<param name="openingTime" value="undefined" />
				<param name="priority" value="1.0" />
				<param name="scoringThisActivityAtAll" value="false" />
				<!-- typical duration of activity.  needs to be defined and non-zero.  in sec. -->
				<param name="typicalDuration" value="undefined" />
				<!-- method to compute score at typical duration.  Options: | uniform | relative | Use uniform for backwards compatibility (all activities same score; higher proba to drop long acts). -->
				<param name="typicalDurationScoreComputation" value="relative" />
			</parameterset>
			<parameterset type="activityParams" >
				<param name="activityType" value="safe" />
				<param name="closingTime" value="undefined" />
				<param name="earliestEndTime" value="undefined" />
				<param name="latestStartTime" value="undefined" />
				<param name="minimalDuration" value="undefined" />
				<param name="openingTime" value="undefined" />
				<param name="priority" value="1.0" />
				<param name="scoringThisActivityAtAll" value="false" />
				<!-- typical duration of activity.  needs to be defined and non-zero.  in sec. -->
				<param name="typicalDuration" value="undefined" />
				<!-- method to compute score at typical duration.  Options: | uniform | relative | Use uniform for backwards compatibility (all activities same score; higher proba to drop long acts). -->
				<param name="typicalDurationScoreComputation" value="relative" />
			</parameterset>
			<parameterset type="modeParams" >
				<!-- [utils] alternative-specific constant.  no guarantee that this is used anywhere. default=0 to be backwards compatible for the time being -->
				<param name="constant" value="0.0" />
				<!-- [utils/m] utility of walking per m, normally negative.  this is on top of the time (dis)utility. -->
				<param name="marginalUtilityOfDistance_util_m" value="0.0" />
				<!-- [utils/hr] additional marginal utility of traveling.  normally negative.  this comes on top of the opportunity cost of time -->
				<param name="marginalUtilityOfTraveling_util_hr" value="-6.0" />
				<param name="mode" value="car" />
				<!-- [unit_of_money/m] conversion of distance into money. Normally negative. -->
				<param name="monetaryDistanceRate" value="0.0" />
			</parameterset>
			<parameterset type="modeParams" >
				<!-- [utils] alternative-specific constant.  no guarantee that this is used anywhere. default=0 to be backwards compatible for the time being -->
				<param name="constant" value="0.0" />
				<!-- [utils/m] utility of walking per m, normally negative.  this is on top of the time (dis)utility. -->
				<param name="marginalUtilityOfDistance_util_m" value="0.0" />
				<!-- [utils/hr] additional marginal utility of traveling.  normally negative.  this comes on top of the opportunity cost of time -->
				<param name="marginalUtilityOfTraveling_util_hr" value="-6.0" />
				<param name="mode" value="pt" />
				<!-- [unit_of_money/m] conversion of distance into money. Normally negative. -->
				<param name="monetaryDistanceRate" value="0.0" />
			</parameterset>
			<parameterset type="modeParams" >
				<!-- [utils] alternative-specific constant.  no guarantee that this is used anywhere. default=0 to be backwards compatible for the time being -->
				<param name="constant" value="0.0" />
				<!-- [utils/m] utility of walking per m, normally negative.  this is on top of the time (dis)utility. -->
				<param name="marginalUtilityOfDistance_util_m" value="0.0" />
				<!-- [utils/hr] additional marginal utility of traveling.  normally negative.  this comes on top of the opportunity cost of time -->
				<param name="marginalUtilityOfTraveling_util_hr" value="-6.0" />
				<param name="mode" value="walk" />
				<!-- [unit_of_money/m] conversion of distance into money. Normally negative. -->
				<param name="monetaryDistanceRate" value="0.0" />
			</parameterset>
			<parameterset type="modeParams" >
				<!-- [utils] alternative-specific constant.  no guarantee that this is used anywhere. default=0 to be backwards compatible for the time being -->
				<param name="constant" value="0.0" />
				<!-- [utils/m] utility of walking per m, normally negative.  this is on top of the time (dis)utility. -->
				<param name="marginalUtilityOfDistance_util_m" value="0.0" />
				<!-- [utils/hr] additional marginal utility of traveling.  normally negative.  this comes on top of the opportunity cost of time -->
				<param name="marginalUtilityOfTraveling_util_hr" value="-6.0" />
				<param name="mode" value="bike" />
				<!-- [unit_of_money/m] conversion of distance into money. Normally negative. -->
				<param name="monetaryDistanceRate" value="0.0" />
			</parameterset>
			<parameterset type="modeParams" >
				<!-- [utils] alternative-specific constant.  no guarantee that this is used anywhere. default=0 to be backwards compatible for the time being -->
				<param name="constant" value="0.0" />
				<!-- [utils/m] utility of walking per m, normally negative.  this is on top of the time (dis)utility. -->
				<param name="marginalUtilityOfDistance_util_m" value="0.0" />
				<!-- [utils/hr] additional marginal utility of traveling.  normally negative.  this comes on top of the opportunity cost of time -->
				<param name="marginalUtilityOfTraveling_util_hr" value="-6.0" />
				<param name="mode" value="ride" />
				<!-- [unit_of_money/m] conversion of distance into money. Normally negative. -->
				<param name="monetaryDistanceRate" value="0.0" />
			</parameterset>
			<parameterset type="modeParams" >
				<!-- [utils] alternative-specific constant.  no guarantee that this is used anywhere. default=0 to be backwards compatible for the time being -->
				<param name="constant" value="0.0" />
				<!-- [utils/m] utility of walking per m, normally negative.  this is on top of the time (dis)utility. -->
				<param name="marginalUtilityOfDistance_util_m" value="0.0" />
				<!-- [utils/hr] additional marginal utility of traveling.  normally negative.  this comes on top of the opportunity cost of time -->
				<param name="marginalUtilityOfTraveling_util_hr" value="-6.0" />
				<param name="mode" value="other" />
				<!-- [unit_of_money/m] conversion of distance into money. Normally negative. -->
				<param name="monetaryDistanceRate" value="0.0" />
			</parameterset>
		</parameterset>
	</module>
<!-- ====================================================================== -->
	<module name="plans" >
		<!-- String: minOfDurationAndEndTime tryEndTimeThenDuration endTimeOnly. Anything besides minOfDurationAndEndTime will internally use a different (simpler) version of the TimeAllocationMutator. -->
		<param name="activityDurationInterpretation" value="tryEndTimeThenDuration" />
		<!-- The Coordinates Reference System in which the coordinates are expressed in the input file. At import, the coordinates will be converted to the coordinate system defined in "global", and willbe converted back at export. If not specified, no conversion happens. -->
		<param name="inputCRS" value="null" />
		<!-- Path to a file containing person attributes (required file format: ObjectAttributes). -->
		<param name="inputPersonAttributesFile" value="null" />
		<param name="inputPlansFile" value="pop.xml.gz" />
		<!-- Defines how routes are stored in memory. Currently supported: LinkNetworkRoute, CompressedNetworkRoute. -->
		<param name="networkRouteType" value="LinkNetworkRoute" />
		<!-- (not tested) will remove plan attributes that are presumably not used, such as activityStartTime. default=false -->
		<param name="removingUnnecessaryPlanAttributes" value="false" />
		<!-- Name of the (Object)Attribute defining the subpopulation to which pertains a Person (as freight, through traffic, etc.). The attribute must be of String type.  Change away from default only in desperate situations. -->
		<param name="subpopulationAttributeName" value="subpopulation" />
	</module>
<!-- ====================================================================== -->
	<module name="planscalcroute" >
		<!-- All the modes for which the router is supposed to generate network routes (like car) -->
		<param name="networkModes" value="car" />
		<parameterset type="teleportedModeParameters" >
			<param name="beelineDistanceFactor" value="1.3" />
			<param name="mode" value="bike" />
			<!-- Free-speed factor for a teleported mode. Travel time = teleportedModeFreespeedFactor * <freespeed car travel time>. Insert a line like this for every such mode. Please do not set teleportedModeFreespeedFactor as well as teleportedModeSpeed for the same mode, but if you do, +teleportedModeFreespeedFactor wins over teleportedModeSpeed. -->
			<param name="teleportedModeFreespeedFactor" value="null" />
			<!-- Speed for a teleported mode. Travel time = (<beeline distance> * beelineDistanceFactor) / teleportedModeSpeed. Insert a line like this for every such mode. -->
			<param name="teleportedModeSpeed" value="4.166666666666667" />
		</parameterset>
		<parameterset type="teleportedModeParameters" >
			<param name="beelineDistanceFactor" value="1.3" />
			<param name="mode" value="walk" />
			<!-- Free-speed factor for a teleported mode. Travel time = teleportedModeFreespeedFactor * <freespeed car travel time>. Insert a line like this for every such mode. Please do not set teleportedModeFreespeedFactor as well as teleportedModeSpeed for the same mode, but if you do, +teleportedModeFreespeedFactor wins over teleportedModeSpeed. -->
			<param name="teleportedModeFreespeedFactor" value="null" />
			<!-- Speed for a teleported mode. Travel time = (<beeline distance> * beelineDistanceFactor) / teleportedModeSpeed. Insert a line like this for every such mode. -->
			<param name="teleportedModeSpeed" value="0.8333333333333333" />
		</parameterset>
		<parameterset type="teleportedModeParameters" >
			<param name="beelineDistanceFactor" value="1.3" />
			<param name="mode" value="access_walk" />
			<!-- Free-speed factor for a teleported mode. Travel time = teleportedModeFreespeedFactor * <freespeed car travel time>. Insert a line like this for every such mode. Please do not set teleportedModeFreespeedFactor as well as teleportedModeSpeed for the same mode, but if you do, +teleportedModeFreespeedFactor wins over teleportedModeSpeed. -->
			<param name="teleportedModeFreespeedFactor" value="null" />
			<!-- Speed for a teleported mode. Travel time = (<beeline distance> * beelineDistanceFactor) / teleportedModeSpeed. Insert a line like this for every such mode. -->
			<param name="teleportedModeSpeed" value="0.8333333333333333" />
		</parameterset>
		<parameterset type="teleportedModeParameters" >
			<param name="beelineDistanceFactor" value="1.3" />
			<param name="mode" value="egress_walk" />
			<!-- Free-speed factor for a teleported mode. Travel time = teleportedModeFreespeedFactor * <freespeed car travel time>. Insert a line like this for every such mode. Please do not set teleportedModeFreespeedFactor as well as teleportedModeSpeed for the same mode, but if you do, +teleportedModeFreespeedFactor wins over teleportedModeSpeed. -->
			<param name="teleportedModeFreespeedFactor" value="null" />
			<!-- Speed for a teleported mode. Travel time = (<beeline distance> * beelineDistanceFactor) / teleportedModeSpeed. Insert a line like this for every such mode. -->
			<param name="teleportedModeSpeed" value="0.8333333333333333" />
		</parameterset>
		<parameterset type="teleportedModeParameters" >
			<param name="beelineDistanceFactor" value="1.3" />
			<param name="mode" value="undefined" />
			<!-- Free-speed factor for a teleported mode. Travel time = teleportedModeFreespeedFactor * <freespeed car travel time>. Insert a line like this for every such mode. Please do not set teleportedModeFreespeedFactor as well as teleportedModeSpeed for the same mode, but if you do, +teleportedModeFreespeedFactor wins over teleportedModeSpeed. -->
			<param name="teleportedModeFreespeedFactor" value="null" />
			<!-- Speed for a teleported mode. Travel time = (<beeline distance> * beelineDistanceFactor) / teleportedModeSpeed. Insert a line like this for every such mode. -->
			<param name="teleportedModeSpeed" value="13.88888888888889" />
		</parameterset>
		<parameterset type="teleportedModeParameters" >
			<param name="beelineDistanceFactor" value="1.3" />
			<param name="mode" value="ride" />
			<!-- Free-speed factor for a teleported mode. Travel time = teleportedModeFreespeedFactor * <freespeed car travel time>. Insert a line like this for every such mode. Please do not set teleportedModeFreespeedFactor as well as teleportedModeSpeed for the same mode, but if you do, +teleportedModeFreespeedFactor wins over teleportedModeSpeed. -->
			<param name="teleportedModeFreespeedFactor" value="1.0" />
			<!-- Speed for a teleported mode. Travel time = (<beeline distance> * beelineDistanceFactor) / teleportedModeSpeed. Insert a line like this for every such mode. -->
			<param name="teleportedModeSpeed" value="null" />
		</parameterset>
		<parameterset type="teleportedModeParameters" >
			<param name="beelineDistanceFactor" value="1.3" />
			<param name="mode" value="pt" />
			<!-- Free-speed factor for a teleported mode. Travel time = teleportedModeFreespeedFactor * <freespeed car travel time>. Insert a line like this for every such mode. Please do not set teleportedModeFreespeedFactor as well as teleportedModeSpeed for the same mode, but if you do, +teleportedModeFreespeedFactor wins over teleportedModeSpeed. -->
			<param name="teleportedModeFreespeedFactor" value="2.0" />
			<!-- Speed for a teleported mode. Travel time = (<beeline distance> * beelineDistanceFactor) / teleportedModeSpeed. Insert a line like this for every such mode. -->
			<param name="teleportedModeSpeed" value="null" />
		</parameterset>
	</module>
<!-- ====================================================================== -->
	<module name="ptCounts" >
		<!-- factor by which to re-scale the simulated values.  necessary when simulation runs with something different from 100%.  needs to be adapted manually -->
		<param name="countsScaleFactor" value="1.0" />
		<!-- distance to distanceFilterCenterNode to include counting stations. The unit of distance is the Euclidean distance implied by the coordinate system -->
		<param name="distanceFilter" value="null" />
		<!-- node id for center node of distance filter -->
		<param name="distanceFilterCenterNode" value="null" />
		<!-- input file containing the alighting (getting off) counts for pt -->
		<param name="inputAlightCountsFile" value="null" />
		<!-- input file containing the boarding (getting on) counts for pt -->
		<param name="inputBoardCountsFile" value="null" />
		<!-- input file containing the occupancy counts for pt -->
		<param name="inputOccupancyCountsFile" value="null" />
		<!-- possible values: `html', `kml', `txt', `all' -->
		<param name="outputformat" value="null" />
		<!-- every how many iterations (starting with 0) counts comparisons are generated -->
		<param name="ptCountsInterval" value="10" />
	</module>
<!-- ====================================================================== -->
	<module name="qsim" >
		<!-- If set to true, creates a vehicle for each person corresponding to every network mode. However, this will be overridden if vehicle source is fromVehiclesData. -->
		<param name="creatingVehiclesForAllNetworkModes" value="true" />
		<param name="endTime" value="undefined" />
		<param name="flowCapacityFactor" value="0.1" />
		<!-- decides if waiting vehicles enter the network after or before the already driving vehicles were moved. Default: false -->
		<param name="insertingWaitingVehiclesBeforeDrivingVehicles" value="false" />
		<!-- If link dynamics is set as SeepageQ, set to false if all seep modes should perform seepage. Default is true (better option). -->
		<param name="isRestrictingSeepage" value="true" />
		<!-- If link dynamics is set as SeepageQ, set to true if seep mode do not consumes any space on the link. Default is false. -->
		<param name="isSeepModeStorageFree" value="false" />
		<!-- default: FIFO; options: FIFO PassingQ SeepageQ -->
		<param name="linkDynamics" value="FIFO" />
		<!-- The (initial) width of the links of the network. Use positive floating point values. This is used only for visualisation. -->
		<param name="linkWidth" value="30.0" />
		<!-- [comma-separated list] Defines which modes are congested modes. Technically, these are the modes that the departure handler of the netsimengine handles.  Effective cell size, effective lane width, flow capacity factor, and storage capacity factor need to be set with diligence.  Need to be vehicular modes to make sense. -->
		<param name="mainMode" value="car" />
		<!-- Shortens a link in the visualization, i.e. its start and end point are moved into towards the center. Does not affect traffic flow.  -->
		<param name="nodeOffset" value="0.0" />
		<!-- Number of threads used for the QSim.  Note that this setting is independent from the "global" threads setting.  In contrast to earlier versions, the non-parallel special version is no longer there. -->
		<param name="numberOfThreads" value="1" />
		<!-- Boolean. `true': stuck vehicles are removed, aborting the plan; `false': stuck vehicles are forced into the next link. `false' is probably the better choice. -->
		<param name="removeStuckVehicles" value="true" />
		<!-- If link dynamics is set as SeepageQ, set a seep mode. Default is bike. -->
		<param name="seepMode" value="bike" />
		<!-- Possible values: minOfEndtimeAndMobsimFinished, onlyUseEndtime -->
		<param name="simEndtimeInterpretation" value="null" />
		<!-- Options: maxOfStarttimeAndEarliestActivityEnd onlyUseStarttime  -->
		<param name="simStarttimeInterpretation" value="maxOfStarttimeAndEarliestActivityEnd" />
		<!-- snapshotStyle. One of: equiDist queue withHoles withHolesAndShowHoles kinematicWaves  -->
		<param name="snapshotStyle" value="equiDist" />
		<param name="snapshotperiod" value="00:00:00" />
		<param name="startTime" value="undefined" />
		<param name="storageCapacityFactor" value="0.1" />
		<!-- time in seconds.  Time after which the frontmost vehicle on a link is called `stuck' if it does not move. -->
		<param name="stuckTime" value="86400.0" />
		<param name="timeStepSize" value="00:00:01" />
		<!-- options: queue withHoles kinematicWaves  -->
		<param name="trafficDynamics" value="queue" />
		<!-- Set this parameter to true if lanes should be used, false if not. -->
		<param name="useLanes" value="false" />
		<!-- If a route does not reference a vehicle, agents will use the vehicle with the same id as their own. -->
		<param name="usePersonIdForMissingVehicleId" value="true" />
		<!-- If false, the qsim accumulates fractional flows up to one flow unit in every time step.  If true, flows are updated only if an agent wants to enter the link or an agent is added to buffer. Default is true. -->
		<param name="usingFastCapacityUpdate" value="true" />
		<!-- if the qsim should use as many runners as there are threads (Christoph's dissertation version) or more of them, together with a thread pool (seems to be faster in some situations, but is not tested). -->
		<param name="usingThreadpool" value="true" />
		<!-- Defines what happens if an agent wants to depart, but the specified vehicle is not available. One of: teleport wait exception  -->
		<param name="vehicleBehavior" value="teleport" />
		<!-- If vehicles should all be the same default vehicle, or come from the vehicles file, or something else.  Possible values:  defaultVehicle modeVehicleTypesFromVehiclesData fromVehiclesData -->
		<param name="vehiclesSource" value="defaultVehicle" />
	</module>
<!-- ====================================================================== -->
	<module name="scenario" >
	</module>
<!-- ====================================================================== -->
	<module name="strategy" >
		<!-- the external executable will be called with a config file as argument.  This is the pathname to a possible skeleton config, to which additional information will be added.  Can be null. -->
		<param name="ExternalExeConfigTemplate" value="null" />
		<!-- time out value (in seconds) after which matsim will consider the external strategy as failed -->
		<param name="ExternalExeTimeOut" value="3600" />
		<!-- root directory for temporary files generated by the external executable. Provided as a service; I don't think this is used by MATSim. -->
		<param name="ExternalExeTmpFileRootDir" value="null" />
		<!-- fraction of iterations where innovative strategies are switched off.  Something link 0.8 should be good.  E.g. if you run from iteration 400 to iteration 500, innovation is switched off at iteration 480 -->
		<param name="fractionOfIterationsToDisableInnovation" value="Infinity" />
		<!-- maximum number of plans per agent.  ``0'' means ``infinity''.  Currently (2010), ``5'' is a good number -->
		<param name="maxAgentPlanMemorySize" value="5" />
		<!-- strategyName of PlanSelector for plans removal.  Possible defaults: WorstPlanSelector SelectRandom SelectExpBetaForRemoval ChangeExpBetaForRemoval PathSizeLogitSelectorForRemoval . The current default, WorstPlanSelector is not a good choice from a discrete choice theoretical perspective. Alternatives, however, have not been systematically tested. kai, feb'12 -->
		<param name="planSelectorForRemoval" value="WorstPlanSelector" />
	</module>
<!-- ====================================================================== -->
	<module name="subtourModeChoice" >
		<!-- Defines the chain-based modes, seperated by commas -->
		<param name="chainBasedModes" value="car,bike" />
		<!-- Defines whether car availability must be considered or not. A agent has no car only if it has no license, or never access to a car -->
		<param name="considerCarAvailability" value="false" />
		<!-- Defines all the modes available, including chain-based modes, seperated by commas -->
		<param name="modes" value="car,pt,bike,walk" />
	</module>
<!-- ====================================================================== -->
	<module name="transit" >
		<!-- The Coordinates Reference System in which the coordinates are expressed in the input file. At import, the coordinates will be converted to the coordinate system defined in "global", and willbe converted back at export. If not specified, no conversion happens. -->
		<param name="inputScheduleCRS" value="null" />
		<!-- Optional input file containing additional attributes for transit lines, stored as ObjectAttributes. -->
		<param name="transitLinesAttributesFile" value="null" />
		<!-- Comma-separated list of transportation modes that are handled as transit. Defaults to 'pt'. -->
		<param name="transitModes" value="pt" />
		<!-- Input file containing the transit schedule to be simulated. -->
		<param name="transitScheduleFile" value="null" />
		<!-- Optional input file containing additional attributes for transit stop facilities, stored as ObjectAttributes. -->
		<param name="transitStopsAttributesFile" value="null" />
		<!-- Set this parameter to true if transit should be simulated, false if not. -->
		<param name="useTransit" value="false" />
		<!-- Input file containing the vehicles used by the departures in the transit schedule. -->
		<param name="vehiclesFile" value="null" />
	</module>
<!-- ====================================================================== -->
	<module name="transitRouter" >
		<!-- additional time the router allocates when a line switch happens. Can be interpreted as a 'safety' time that agents need to safely transfer from one line to another -->
		<param name="additionalTransferTime" value="0.0" />
		<!-- Factor with which direct walk generalized cost is multiplied before it is compared to the pt generalized cost.  Set to a very high value to reduce direct walk results. -->
		<param name="directWalkFactor" value="1.0" />
		<!-- step size to increase searchRadius if no stops are found -->
		<param name="extensionRadius" value="200.0" />
		<!-- maximum beeline distance between stops that agents could transfer to by walking -->
		<param name="maxBeelineWalkConnectionDistance" value="100.0" />
		<!-- the radius in which stop locations are searched, given a start or target coordinate -->
		<param name="searchRadius" value="1000.0" />
	</module>
<!-- ====================================================================== -->
	<module name="travelTimeCalculator" >
		<!-- Transport modes that will be respected by the travel time collector. 'car' is default, which includes also busses from the pt simulation module. Use this parameter in combination with 'filterModes' = true! -->
		<param name="analyzedModes" value="car" />
		<param name="calculateLinkToLinkTravelTimes" value="false" />
		<param name="calculateLinkTravelTimes" value="true" />
		<!-- If true, link travel times from legs performed on modes not included in the 'analyzedModes' parameter are ignored. -->
		<param name="filterModes" value="false" />
		<!-- The lenght (in sec) of the time period that is splited into time bins; an additional time bin is created to aggregate all travel times collected after maxTime -->
		<param name="maxTime" value="108000" />
		<!-- If true, link travel times are measured and calculated separately for each mode in analyzedModes. Other modes are ignored. If true, filterModes has no effect. -->
		<param name="separateModes" value="false" />
		<!-- How to deal with congested time bins that have no link entry events. `optimistic' assumes free speed (too optimistic); 'experimental_LastMile' is experimental and probably too pessimistic. -->
		<param name="travelTimeAggregator" value="optimistic" />
		<!-- The size of the time bin (in sec) into which the link travel times are aggregated for the router -->
		<param name="travelTimeBinSize" value="900" />
		<!-- possible values: TravelTimeCalculatorArray TravelTimeCalculatorHashMap  -->
		<param name="travelTimeCalculator" value="TravelTimeCalculatorArray" />
		<!-- How to deal with link entry times at different positions during the time bin. Currently supported: average, linearinterpolation -->
		<param name="travelTimeGetter" value="average" />
	</module>
<!-- ====================================================================== -->
	<module name="vehicles" >
		<param name="vehiclesFile" value="null" />
	</module>
<!-- ====================================================================== -->
	<module name="vspExperimental" >
		<!-- (do not use except of you have to) There was a problem with pt interaction scoring.  Some people solved it by overwriting the parameters of the pt interaction activity type.  Doing this now throws an Exception.  If you still insist on doing this, set the following to true. -->
		<param name="isAbleToOverwritePtInteractionParams" value="false" />
		<param name="isGeneratingBoardingDeniedEvent" value="false" />
		<!-- if an approximation of the opportunity cost of time is included into the radius calculation for location choice.`true' will be faster, but it is an approximation.  Default is `true'; `false' is available for backwards compatibility. -->
		<param name="isUsingOpportunityCostOfTimeForLocationChoice" value="true" />
		<param name="logitScaleParamForPlansRemoval" value="1.0" />
		<!-- Options: | ignore | info | warn | abort | .  When violating VSP defaults, this results in nothing, logfile infos, logfile warnings, or aborts.  Members of VSP should use `abort' or talk to kai. -->
		<param name="vspDefaultsCheckingLevel" value="ignore" />
		<!-- if true then writes output_events in output directory.  default is `false'. Will only work when lastIteration is multiple of events writing interval -->
		<param name="writingOutputEvents" value="true" />
	</module>
<!-- ====================================================================== -->

</config>

2018-04-27 09:51:37,716  INFO ControlerUtils:63 Complete config dump done.
2018-04-27 09:51:37,716  INFO ControlerUtils:64 Checking consistency of config...
2018-04-27 09:51:37,716  INFO PlanCalcScoreConfigGroup$ScoringParameterSet:1372 NO OPENING OR CLOSING TIMES DEFINED!

There is no activity type that has an opening *and* closing time (or opening time and late penalty) defined.
This usually means that the activity chains can be shifted by an arbitrary
number of hours without having an effect on the score of the plans, and thus
resulting in wrong results / traffic patterns.
If you are using MATSim without time adaptation, you can ignore this warning.


2018-04-27 09:51:37,717  INFO VspConfigConsistencyCheckerImpl:58 NOT running vsp config consistency check because vsp defaults checking level is set to IGNORE
2018-04-27 09:51:37,717  INFO ControlerUtils:66 Checking consistency of config done.
2018-04-27 09:51:37,718  INFO PrepareForSimImpl:75 Network seems to be multimodal. Create car-only network which is handed over to PersonPrepareForSim.
2018-04-27 09:51:37,718  INFO NetworkImpl:167  node # 1
2018-04-27 09:51:37,719  INFO NetworkImpl:167  node # 4
2018-04-27 09:51:37,719  INFO NetworkImpl:167  node # 16
2018-04-27 09:51:37,719  INFO NetworkImpl:167  node # 64
2018-04-27 09:51:37,719  INFO NetworkImpl:167  node # 256
2018-04-27 09:51:37,720  INFO NetworkImpl:167  node # 1024
2018-04-27 09:51:37,724  INFO NetworkImpl:163  link # 1
2018-04-27 09:51:37,725  INFO NetworkImpl:163  link # 4
2018-04-27 09:51:37,725  INFO NetworkImpl:163  link # 16
2018-04-27 09:51:37,725  INFO NetworkImpl:163  link # 64
2018-04-27 09:51:37,729  INFO NetworkImpl:163  link # 256
2018-04-27 09:51:37,734  INFO NetworkImpl:163  link # 1024
2018-04-27 09:51:37,783  INFO NetworkImpl:163  link # 4096
2018-04-27 09:51:37,873  INFO Counter:61 [PersonPrepareForSim] handled person # 1
2018-04-27 09:51:37,874  INFO Counter:61 [PersonPrepareForSim] handled person # 2
2018-04-27 09:51:37,874  INFO Counter:61 [PersonPrepareForSim] handled person # 4
2018-04-27 09:51:37,876  INFO Counter:61 [PersonPrepareForSim] handled person # 8
2018-04-27 09:51:37,878  INFO Counter:61 [PersonPrepareForSim] handled person # 16
2018-04-27 09:51:37,881  INFO Counter:61 [PersonPrepareForSim] handled person # 32
2018-04-27 09:51:37,886  INFO Counter:61 [PersonPrepareForSim] handled person # 64
2018-04-27 09:51:37,916  INFO Counter:61 [PersonPrepareForSim] handled person # 128
2018-04-27 09:51:37,935  INFO Counter:61 [PersonPrepareForSim] handled person # 256
2018-04-27 09:51:38,018  INFO Counter:61 [PersonPrepareForSim] handled person # 512
2018-04-27 09:51:38,384  INFO Counter:61 [PersonPrepareForSim] handled person # 1024
2018-04-27 09:51:38,633  INFO Counter:61 [PersonPrepareForSim] handled person # 2048
2018-04-27 09:51:38,894  INFO Counter:61 [PersonPrepareForSim] handled person # 4096
2018-04-27 09:51:39,341  INFO Counter:67 [PersonPrepareForSim] handled person # 7649
2018-04-27 09:51:39,342  INFO Counter:61  vehicles # 1
2018-04-27 09:51:39,342  INFO Counter:61  vehicles # 2
2018-04-27 09:51:39,342  INFO Counter:61  vehicles # 4
2018-04-27 09:51:39,343  INFO Counter:61  vehicles # 8
2018-04-27 09:51:39,343  INFO Counter:61  vehicles # 16
2018-04-27 09:51:39,343  INFO Counter:61  vehicles # 32
2018-04-27 09:51:39,343  INFO Counter:61  vehicles # 64
2018-04-27 09:51:39,344  INFO Counter:61  vehicles # 128
2018-04-27 09:51:39,345  INFO Counter:61  vehicles # 256
2018-04-27 09:51:39,347  INFO Counter:61  vehicles # 512
2018-04-27 09:51:39,350  INFO Counter:61  vehicles # 1024
2018-04-27 09:51:39,356  INFO Counter:61  vehicles # 2048
2018-04-27 09:51:39,363  INFO Counter:61  vehicles # 4096
2018-04-27 09:51:39,385  INFO AbstractController:126 ###################################################
2018-04-27 09:51:39,386  INFO AbstractController:127 ### ITERATION 0 BEGINS
2018-04-27 09:51:39,386  INFO ControlerListenerManagerImpl:145 calling notifyIterationStarts on org.matsim.analysis.LegHistogramListener
2018-04-27 09:51:39,387  INFO ControlerListenerManagerImpl:145 calling notifyIterationStarts on org.matsim.analysis.LinkStatsControlerListener
2018-04-27 09:51:39,387  INFO ControlerListenerManagerImpl:145 calling notifyIterationStarts on org.matsim.core.replanning.ReplanningContextImpl
2018-04-27 09:51:39,387  INFO ControlerListenerManagerImpl:145 calling notifyIterationStarts on org.matsim.core.scoring.ExperiencedPlansServiceImpl$1
2018-04-27 09:51:39,392  INFO ControlerListenerManagerImpl:145 calling notifyIterationStarts on org.matsim.core.scoring.ScoringFunctionsForPopulation$1
2018-04-27 09:51:39,438  INFO ControlerListenerManagerImpl:148 [it.0] all ControlerIterationStartsListeners called.
2018-04-27 09:51:39,439  INFO ControlerListenerManagerImpl:224 calling notifyBeforeMobsim on org.matsim.core.controler.corelisteners.EventsHandlingImpl
2018-04-27 09:51:39,439  INFO EventsManagerImpl:170 resetting Event-Handlers
2018-04-27 09:51:39,439  INFO EventsManagerImpl:177   org.matsim.core.scoring.EventsToActivities
2018-04-27 09:51:39,439  INFO EventsManagerImpl:177   org.matsim.analysis.CalcLegTimes
2018-04-27 09:51:39,440  INFO EventsManagerImpl:177   org.matsim.core.scoring.EventsToLegs
2018-04-27 09:51:39,440  INFO EventsManagerImpl:177   org.matsim.analysis.LegHistogram
2018-04-27 09:51:39,440  INFO EventsManagerImpl:177   org.matsim.analysis.VolumesAnalyzer
2018-04-27 09:51:39,440  INFO EventsManagerImpl:177   org.matsim.core.scoring.ScoringFunctionsForPopulation
2018-04-27 09:51:39,443  INFO EventsManagerImpl:144 adding Event-Handler: org.matsim.core.events.algorithms.EventWriterXML
2018-04-27 09:51:39,443  INFO EventsManagerImpl:148   org.matsim.core.events.algorithms.EventWriter
2018-04-27 09:51:39,444  INFO EventsManagerImpl:148   org.matsim.core.events.handler.BasicEventHandler
2018-04-27 09:51:39,444  INFO EventsManagerImpl:207     > org.matsim.api.core.v01.events.Event
2018-04-27 09:51:39,444  INFO EventsManagerImpl:156 
2018-04-27 09:51:39,444  INFO EventsManagerImpl:144 adding Event-Handler: org.matsim.core.events.algorithms.EventWriterXML
2018-04-27 09:51:39,444  INFO EventsManagerImpl:148   org.matsim.core.events.algorithms.EventWriter
2018-04-27 09:51:39,444  INFO EventsManagerImpl:148   org.matsim.core.events.handler.BasicEventHandler
2018-04-27 09:51:39,444  INFO EventsManagerImpl:207     > org.matsim.api.core.v01.events.Event
2018-04-27 09:51:39,444  INFO EventsManagerImpl:156 
2018-04-27 09:51:39,445  INFO ControlerListenerManagerImpl:224 calling notifyBeforeMobsim on org.matsim.core.controler.corelisteners.PlansDumpingImpl
2018-04-27 09:51:39,445  INFO PlansDumpingImpl:75 dumping plans...
2018-04-27 09:51:39,460  INFO Counter:61 [PopulationWriter] dumped person # 1
2018-04-27 09:51:39,460  INFO Counter:61 [PopulationWriter] dumped person # 2
2018-04-27 09:51:39,461  INFO Counter:61 [PopulationWriter] dumped person # 4
2018-04-27 09:51:39,461  INFO Counter:61 [PopulationWriter] dumped person # 8
2018-04-27 09:51:39,462  INFO Counter:61 [PopulationWriter] dumped person # 16
2018-04-27 09:51:39,465  INFO Counter:61 [PopulationWriter] dumped person # 32
2018-04-27 09:51:39,468  INFO Counter:61 [PopulationWriter] dumped person # 64
2018-04-27 09:51:39,476  INFO Counter:61 [PopulationWriter] dumped person # 128
2018-04-27 09:51:39,486  INFO Counter:61 [PopulationWriter] dumped person # 256
2018-04-27 09:51:39,505  INFO Counter:61 [PopulationWriter] dumped person # 512
2018-04-27 09:51:39,533  INFO Counter:61 [PopulationWriter] dumped person # 1024
2018-04-27 09:51:39,586  INFO Counter:61 [PopulationWriter] dumped person # 2048
2018-04-27 09:51:39,651  INFO Counter:61 [PopulationWriter] dumped person # 4096
2018-04-27 09:51:39,759  INFO PopulationWriter:139 Population written to: ./output/ITERS/it.0/0.plans.xml.gz
2018-04-27 09:51:39,760  INFO Counter:67 [PopulationWriter] dumped person # 7649
2018-04-27 09:51:39,761  INFO PlansDumpingImpl:92 finished plans dump.
2018-04-27 09:51:39,761  INFO ControlerListenerManagerImpl:229 calling notifyBeforeMobsim on org.matsim.core.population.VspPlansCleaner
2018-04-27 09:51:39,772  INFO ControlerListenerManagerImpl:232 [it.0] all ControlerBeforeMobsimListeners called.
2018-04-27 09:51:39,833  INFO MobsimListenerManager:49 calling addQueueSimulationListener
2018-04-27 09:51:39,833  INFO MobsimListenerManager:53   assigned class org.matsim.core.mobsim.framework.listeners.MobsimListener to interface org.matsim.core.mobsim.framework.listeners.MobsimListener
2018-04-27 09:51:39,834  INFO MobsimListenerManager:53   assigned class org.matsim.core.mobsim.framework.listeners.MobsimListener to interface org.matsim.vis.snapshotwriters.SnapshotWriterManager
2018-04-27 09:51:39,834  INFO MobsimListenerManager:53   assigned class org.matsim.core.mobsim.framework.listeners.MobsimListener to interface org.matsim.core.mobsim.framework.listeners.MobsimInitializedListener
2018-04-27 09:51:39,834  INFO MobsimListenerManager:53   assigned class org.matsim.core.mobsim.framework.listeners.MobsimListener to interface org.matsim.core.mobsim.framework.listeners.MobsimBeforeCleanupListener
2018-04-27 09:51:39,835  INFO MobsimListenerManager:53   assigned class org.matsim.core.mobsim.framework.listeners.MobsimListener to interface org.matsim.core.mobsim.framework.listeners.MobsimAfterSimStepListener
2018-04-27 09:51:39,913  INFO Injector:80 === printInjector start ===
2018-04-27 09:51:39,914  INFO Injector:84 org.matsim.core.mobsim.qsim.qnetsimengine.VehicularDepartureHandler 
2018-04-27 09:51:39,914  INFO Injector:85   --> provider: Key[type=org.matsim.core.mobsim.qsim.qnetsimengine.QNetsimEngineDepartureHandlerProvider, annotation=[none]][Scopes.SINGLETON]
2018-04-27 09:51:39,914  INFO Injector:86   --> source: org.matsim.core.mobsim.qsim.qnetsimengine.QNetsimEnginePlugin$1.configure(QNetsimEnginePlugin.java:25)
2018-04-27 09:51:39,915  INFO Injector:88   --> scope: eager singleton
2018-04-27 09:51:39,915  INFO Injector:92 
2018-04-27 09:51:39,915  INFO Injector:84 org.matsim.core.mobsim.qsim.agents.AgentFactory 
2018-04-27 09:51:39,916  INFO Injector:85   --> provider: FactoryProxy{key=Key[type=org.matsim.core.mobsim.qsim.agents.AgentFactory, annotation=[none]], provider=com.google.inject.internal.ConstructorBindingImpl$Factory@561868a0}[Scopes.SINGLETON]
2018-04-27 09:51:39,916  INFO Injector:86   --> source: org.matsim.core.mobsim.qsim.PopulationPlugin$1.configure(PopulationPlugin.java:30)
2018-04-27 09:51:39,917  INFO Injector:88   --> scope: eager singleton
2018-04-27 09:51:39,917  INFO Injector:92 
2018-04-27 09:51:39,917  INFO Injector:84 org.matsim.core.mobsim.qsim.interfaces.Netsim 
2018-04-27 09:51:39,918  INFO Injector:85   --> provider: FactoryProxy{key=Key[type=org.matsim.core.mobsim.qsim.interfaces.Netsim, annotation=[none]], provider=com.google.inject.internal.ConstructorBindingImpl$Factory@7803bfd[Scopes.SINGLETON]}
2018-04-27 09:51:39,918  INFO Injector:86   --> source: org.matsim.core.mobsim.qsim.QSimProvider$1.configure(QSimProvider.java:65)
2018-04-27 09:51:39,918  INFO Injector:88   --> scope: Scopes.NO_SCOPE
2018-04-27 09:51:39,918  INFO Injector:92 
2018-04-27 09:51:39,919  INFO Injector:84 org.matsim.core.mobsim.jdeqsim.MessageQueue 
2018-04-27 09:51:39,919  INFO Injector:85   --> provider: com.google.inject.internal.ConstructorBindingImpl$Factory@6f3c660a[Scopes.SINGLETON]
2018-04-27 09:51:39,919  INFO Injector:86   --> source: org.matsim.core.mobsim.qsim.messagequeueengine.MessageQueuePlugin$1.configure(MessageQueuePlugin.java:24)
2018-04-27 09:51:39,919  INFO Injector:88   --> scope: eager singleton
2018-04-27 09:51:39,920  INFO Injector:92 
2018-04-27 09:51:39,920  INFO Injector:84 org.matsim.core.mobsim.qsim.jdeqsimengine.SteppableScheduler 
2018-04-27 09:51:39,920  INFO Injector:85   --> provider: com.google.inject.internal.ConstructorBindingImpl$Factory@7776ab[Scopes.SINGLETON]
2018-04-27 09:51:39,920  INFO Injector:86   --> source: org.matsim.core.mobsim.qsim.messagequeueengine.MessageQueuePlugin$1.configure(MessageQueuePlugin.java:25)
2018-04-27 09:51:39,921  INFO Injector:88   --> scope: eager singleton
2018-04-27 09:51:39,921  INFO Injector:92 
2018-04-27 09:51:39,921  INFO Injector:84 org.matsim.core.mobsim.qsim.messagequeueengine.MessageQueueEngine 
2018-04-27 09:51:39,925  INFO Injector:85   --> provider: com.google.inject.internal.ConstructorBindingImpl$Factory@4eb386df[Scopes.SINGLETON]
2018-04-27 09:51:39,928  INFO Injector:86   --> source: org.matsim.core.mobsim.qsim.messagequeueengine.MessageQueuePlugin$1.configure(MessageQueuePlugin.java:26)
2018-04-27 09:51:39,928  INFO Injector:88   --> scope: eager singleton
2018-04-27 09:51:39,929  INFO Injector:92 
2018-04-27 09:51:39,929  INFO Injector:84 org.matsim.core.mobsim.qsim.ActivityEngine 
2018-04-27 09:51:39,930  INFO Injector:85   --> provider: com.google.inject.internal.ConstructorBindingImpl$Factory@3da30852[Scopes.SINGLETON]
2018-04-27 09:51:39,930  INFO Injector:86   --> source: org.matsim.core.mobsim.qsim.ActivityEnginePlugin$1.configure(ActivityEnginePlugin.java:23)
2018-04-27 09:51:39,931  INFO Injector:88   --> scope: eager singleton
2018-04-27 09:51:39,931  INFO Injector:92 
2018-04-27 09:51:39,931  INFO Injector:84 org.matsim.core.mobsim.qsim.qnetsimengine.QNetsimEngine 
2018-04-27 09:51:39,932  INFO Injector:85   --> provider: com.google.inject.internal.ConstructorBindingImpl$Factory@77825085[Scopes.SINGLETON]
2018-04-27 09:51:39,933  INFO Injector:86   --> source: org.matsim.core.mobsim.qsim.qnetsimengine.QNetsimEnginePlugin$1.configure(QNetsimEnginePlugin.java:24)
2018-04-27 09:51:39,933  INFO Injector:88   --> scope: eager singleton
2018-04-27 09:51:39,933  INFO Injector:92 
2018-04-27 09:51:39,934  INFO Injector:84 org.matsim.core.mobsim.qsim.DefaultTeleportationEngine 
2018-04-27 09:51:39,934  INFO Injector:85   --> provider: com.google.inject.internal.ConstructorBindingImpl$Factory@4b1d6571[Scopes.SINGLETON]
2018-04-27 09:51:39,935  INFO Injector:86   --> source: org.matsim.core.mobsim.qsim.TeleportationPlugin$1.configure(TeleportationPlugin.java:21)
2018-04-27 09:51:39,935  INFO Injector:88   --> scope: eager singleton
2018-04-27 09:51:39,935  INFO Injector:92 
2018-04-27 09:51:39,935  INFO Injector:84 org.matsim.core.mobsim.qsim.agents.PopulationAgentSource 
2018-04-27 09:51:39,935  INFO Injector:85   --> provider: com.google.inject.internal.ConstructorBindingImpl$Factory@16414e40[Scopes.SINGLETON]
2018-04-27 09:51:39,936  INFO Injector:86   --> source: org.matsim.core.mobsim.qsim.PopulationPlugin$1.configure(PopulationPlugin.java:26)
2018-04-27 09:51:39,936  INFO Injector:88   --> scope: eager singleton
2018-04-27 09:51:39,936  INFO Injector:92 
2018-04-27 09:51:39,936  INFO Injector:84 org.matsim.core.mobsim.qsim.QSim 
2018-04-27 09:51:39,937  INFO Injector:85   --> provider: com.google.inject.internal.ConstructorBindingImpl$Factory@7803bfd[Scopes.SINGLETON]
2018-04-27 09:51:39,937  INFO Injector:86   --> source: org.matsim.core.mobsim.qsim.QSimProvider$1.configure(QSimProvider.java:64)
2018-04-27 09:51:39,937  INFO Injector:88   --> scope: eager singleton
2018-04-27 09:51:39,937  INFO Injector:92 
2018-04-27 09:51:39,937  INFO Injector:95 === printInjector end ===
2018-04-27 09:51:39,938  INFO MobsimListenerManager:49 calling addQueueSimulationListener
2018-04-27 09:51:39,938  INFO MobsimListenerManager:53   assigned class org.matsim.core.mobsim.framework.listeners.MobsimListener to interface org.matsim.core.mobsim.framework.listeners.MobsimListener
2018-04-27 09:51:39,938  INFO MobsimListenerManager:53   assigned class org.matsim.core.mobsim.framework.listeners.MobsimListener to interface org.matsim.core.mobsim.framework.listeners.MobsimBeforeSimStepListener
2018-04-27 09:51:39,938  INFO MobsimListenerManager:53   assigned class org.matsim.core.mobsim.framework.listeners.MobsimListener to interface org.matsim.core.mobsim.qsim.messagequeueengine.MessageQueueEngine
2018-04-27 09:51:40,048  INFO QNetsimEngine:504 Assigned 3751 nodes and 10866 links to QSimEngineRunner #0
2018-04-27 09:51:40,083  INFO EventsManagerImpl:134  event # 1
2018-04-27 09:51:40,086  INFO EventsManagerImpl:134  event # 4
2018-04-27 09:51:40,087  INFO EventsManagerImpl:134  event # 16
2018-04-27 09:51:40,089  INFO EventsManagerImpl:134  event # 64
2018-04-27 09:51:40,097  INFO EventsManagerImpl:134  event # 256
2018-04-27 09:51:40,112  INFO EventsManagerImpl:134  event # 1024
2018-04-27 09:51:40,150  INFO EventsManagerImpl:134  event # 4096
2018-04-27 09:51:40,203  INFO QNetsimEngine:347 SIMULATION (QNetsimEngine) AT 240:00:00 : #links=137 #nodes=145
2018-04-27 09:51:40,207  INFO QSim:506 SIMULATION (NEW QSim) AT 240:00:00 : #Veh=7649 lost=0 simT=0.0s realT=0s; (s/r): 0.0
2018-04-27 09:51:40,208  INFO Gbl:54 used RAM: 296461392B = 289513kB = 282MB  free: 188505008B = 179MB  total: 484966400B = 462MB
2018-04-27 09:51:40,269  INFO EventsManagerImpl:134  event # 16384
2018-04-27 09:51:41,750  INFO EventsManagerImpl:134  event # 65536
2018-04-27 09:51:43,128  INFO QNetsimEngine:347 SIMULATION (QNetsimEngine) AT 241:00:00 : #links=439 #nodes=173
2018-04-27 09:51:43,129  INFO QSim:506 SIMULATION (NEW QSim) AT 241:00:00 : #Veh=6891 lost=0 simT=3600.0s realT=3s; (s/r): 1200.0
2018-04-27 09:51:43,129  INFO Gbl:54 used RAM: 169699432B = 165722kB = 161MB  free: 318412696B = 303MB  total: 488112128B = 465MB
2018-04-27 09:51:44,785  INFO QNetsimEngine:347 SIMULATION (QNetsimEngine) AT 242:00:00 : #links=390 #nodes=168
2018-04-27 09:51:44,791  INFO QSim:506 SIMULATION (NEW QSim) AT 242:00:00 : #Veh=6109 lost=0 simT=7200.0s realT=4s; (s/r): 1800.0
2018-04-27 09:51:44,792  INFO Gbl:54 used RAM: 271383560B = 265023kB = 258MB  free: 216728568B = 206MB  total: 488112128B = 465MB
2018-04-27 09:51:46,216  INFO QNetsimEngine:347 SIMULATION (QNetsimEngine) AT 243:00:00 : #links=365 #nodes=156
2018-04-27 09:51:46,216  INFO QSim:506 SIMULATION (NEW QSim) AT 243:00:00 : #Veh=5368 lost=0 simT=10800.0s realT=6s; (s/r): 1800.0
2018-04-27 09:51:46,216  INFO Gbl:54 used RAM: 369087760B = 360437kB = 351MB  free: 119024368B = 113MB  total: 488112128B = 465MB
2018-04-27 09:51:47,440  INFO QNetsimEngine:347 SIMULATION (QNetsimEngine) AT 244:00:00 : #links=323 #nodes=123
2018-04-27 09:51:47,446  INFO QSim:506 SIMULATION (NEW QSim) AT 244:00:00 : #Veh=4668 lost=0 simT=14400.0s realT=7s; (s/r): 2057.1428571428573
2018-04-27 09:51:47,447  INFO Gbl:54 used RAM: 203040584B = 198281kB = 193MB  free: 565565624B = 539MB  total: 768606208B = 733MB
2018-04-27 09:51:48,244  INFO EventsManagerImpl:134  event # 262144
2018-04-27 09:51:48,628  INFO QNetsimEngine:347 SIMULATION (QNetsimEngine) AT 245:00:00 : #links=291 #nodes=121
2018-04-27 09:51:48,628  INFO QSim:506 SIMULATION (NEW QSim) AT 245:00:00 : #Veh=4068 lost=0 simT=18000.0s realT=8s; (s/r): 2250.0
2018-04-27 09:51:48,628  INFO Gbl:54 used RAM: 276060536B = 269590kB = 263MB  free: 492545672B = 469MB  total: 768606208B = 733MB
2018-04-27 09:51:49,568  INFO QNetsimEngine:347 SIMULATION (QNetsimEngine) AT 246:00:00 : #links=256 #nodes=103
2018-04-27 09:51:49,569  INFO QSim:506 SIMULATION (NEW QSim) AT 246:00:00 : #Veh=3519 lost=0 simT=21600.0s realT=9s; (s/r): 2400.0
2018-04-27 09:51:49,569  INFO Gbl:54 used RAM: 340052392B = 332082kB = 324MB  free: 428553816B = 408MB  total: 768606208B = 733MB
2018-04-27 09:51:50,391  INFO QNetsimEngine:347 SIMULATION (QNetsimEngine) AT 247:00:00 : #links=196 #nodes=89
2018-04-27 09:51:50,392  INFO QSim:506 SIMULATION (NEW QSim) AT 247:00:00 : #Veh=2995 lost=0 simT=25200.0s realT=10s; (s/r): 2520.0
2018-04-27 09:51:50,392  INFO Gbl:54 used RAM: 401982304B = 392560kB = 383MB  free: 366623904B = 349MB  total: 768606208B = 733MB
2018-04-27 09:51:51,092  INFO QNetsimEngine:347 SIMULATION (QNetsimEngine) AT 248:00:00 : #links=158 #nodes=75
2018-04-27 09:51:51,092  INFO QSim:506 SIMULATION (NEW QSim) AT 248:00:00 : #Veh=2591 lost=0 simT=28800.0s realT=11s; (s/r): 2618.181818181818
2018-04-27 09:51:51,092  INFO Gbl:54 used RAM: 447653096B = 437161kB = 426MB  free: 320953112B = 306MB  total: 768606208B = 733MB
2018-04-27 09:51:51,839  INFO QNetsimEngine:347 SIMULATION (QNetsimEngine) AT 249:00:00 : #links=161 #nodes=47
2018-04-27 09:51:51,839  INFO QSim:506 SIMULATION (NEW QSim) AT 249:00:00 : #Veh=2260 lost=0 simT=32400.0s realT=12s; (s/r): 2700.0
2018-04-27 09:51:51,839  INFO Gbl:54 used RAM: 484295448B = 472944kB = 461MB  free: 284310760B = 271MB  total: 768606208B = 733MB
2018-04-27 09:51:52,587  INFO QNetsimEngine:347 SIMULATION (QNetsimEngine) AT 250:00:00 : #links=135 #nodes=42
2018-04-27 09:51:52,587  INFO QSim:506 SIMULATION (NEW QSim) AT 250:00:00 : #Veh=1988 lost=0 simT=36000.0s realT=12s; (s/r): 3000.0
2018-04-27 09:51:52,587  INFO Gbl:54 used RAM: 521265360B = 509048kB = 497MB  free: 247340848B = 235MB  total: 768606208B = 733MB
2018-04-27 09:51:53,129  INFO QNetsimEngine:347 SIMULATION (QNetsimEngine) AT 251:00:00 : #links=99 #nodes=40
2018-04-27 09:51:53,136  INFO QSim:506 SIMULATION (NEW QSim) AT 251:00:00 : #Veh=1770 lost=0 simT=39600.0s realT=13s; (s/r): 3046.153846153846
2018-04-27 09:51:53,136  INFO Gbl:54 used RAM: 546490320B = 533681kB = 521MB  free: 222115888B = 211MB  total: 768606208B = 733MB
2018-04-27 09:51:53,657  INFO QNetsimEngine:347 SIMULATION (QNetsimEngine) AT 252:00:00 : #links=85 #nodes=30
2018-04-27 09:51:53,658  INFO QSim:506 SIMULATION (NEW QSim) AT 252:00:00 : #Veh=1590 lost=0 simT=43200.0s realT=13s; (s/r): 3323.076923076923
2018-04-27 09:51:53,658  INFO Gbl:54 used RAM: 569325672B = 555982kB = 542MB  free: 199280536B = 190MB  total: 768606208B = 733MB
2018-04-27 09:51:54,127  INFO QNetsimEngine:347 SIMULATION (QNetsimEngine) AT 253:00:00 : #links=78 #nodes=26
2018-04-27 09:51:54,127  INFO QSim:506 SIMULATION (NEW QSim) AT 253:00:00 : #Veh=1412 lost=0 simT=46800.0s realT=14s; (s/r): 3342.8571428571427
2018-04-27 09:51:54,127  INFO Gbl:54 used RAM: 592488536B = 578602kB = 565MB  free: 176117672B = 167MB  total: 768606208B = 733MB
2018-04-27 09:51:54,563  INFO QNetsimEngine:347 SIMULATION (QNetsimEngine) AT 254:00:00 : #links=60 #nodes=24
2018-04-27 09:51:54,563  INFO QSim:506 SIMULATION (NEW QSim) AT 254:00:00 : #Veh=1263 lost=0 simT=50400.0s realT=14s; (s/r): 3600.0
2018-04-27 09:51:54,563  INFO Gbl:54 used RAM: 610809744B = 596493kB = 582MB  free: 157796464B = 150MB  total: 768606208B = 733MB
2018-04-27 09:51:54,965  INFO QNetsimEngine:347 SIMULATION (QNetsimEngine) AT 255:00:00 : #links=69 #nodes=24
2018-04-27 09:51:54,965  INFO QSim:506 SIMULATION (NEW QSim) AT 255:00:00 : #Veh=1158 lost=0 simT=54000.0s realT=15s; (s/r): 3600.0
2018-04-27 09:51:54,965  INFO Gbl:54 used RAM: 626741448B = 612052kB = 597MB  free: 141864760B = 135MB  total: 768606208B = 733MB
2018-04-27 09:51:55,331  INFO QNetsimEngine:347 SIMULATION (QNetsimEngine) AT 256:00:00 : #links=65 #nodes=16
2018-04-27 09:51:55,332  INFO QSim:506 SIMULATION (NEW QSim) AT 256:00:00 : #Veh=1038 lost=0 simT=57600.0s realT=15s; (s/r): 3840.0
2018-04-27 09:51:55,332  INFO Gbl:54 used RAM: 645390272B = 630263kB = 615MB  free: 123215936B = 117MB  total: 768606208B = 733MB
2018-04-27 09:51:55,741  INFO QNetsimEngine:347 SIMULATION (QNetsimEngine) AT 257:00:00 : #links=65 #nodes=18
2018-04-27 09:51:55,742  INFO QSim:506 SIMULATION (NEW QSim) AT 257:00:00 : #Veh=918 lost=0 simT=61200.0s realT=15s; (s/r): 4080.0
2018-04-27 09:51:55,742  INFO Gbl:54 used RAM: 656807896B = 641413kB = 626MB  free: 111798312B = 106MB  total: 768606208B = 733MB
2018-04-27 09:51:56,200  INFO QNetsimEngine:347 SIMULATION (QNetsimEngine) AT 258:00:00 : #links=45 #nodes=16
2018-04-27 09:51:56,200  INFO QSim:506 SIMULATION (NEW QSim) AT 258:00:00 : #Veh=801 lost=0 simT=64800.0s realT=16s; (s/r): 4050.0
2018-04-27 09:51:56,200  INFO Gbl:54 used RAM: 154281296B = 150665kB = 147MB  free: 615897776B = 587MB  total: 770179072B = 734MB
2018-04-27 09:51:56,520  INFO QNetsimEngine:347 SIMULATION (QNetsimEngine) AT 259:00:00 : #links=45 #nodes=13
2018-04-27 09:51:56,520  INFO QSim:506 SIMULATION (NEW QSim) AT 259:00:00 : #Veh=741 lost=0 simT=68400.0s realT=16s; (s/r): 4275.0
2018-04-27 09:51:56,520  INFO Gbl:54 used RAM: 162270224B = 158467kB = 154MB  free: 607908848B = 579MB  total: 770179072B = 734MB
2018-04-27 09:51:56,769  INFO QNetsimEngine:347 SIMULATION (QNetsimEngine) AT 260:00:00 : #links=44 #nodes=15
2018-04-27 09:51:56,770  INFO QSim:506 SIMULATION (NEW QSim) AT 260:00:00 : #Veh=681 lost=0 simT=72000.0s realT=16s; (s/r): 4500.0
2018-04-27 09:51:56,770  INFO Gbl:54 used RAM: 171185464B = 167173kB = 163MB  free: 598993608B = 571MB  total: 770179072B = 734MB
2018-04-27 09:51:57,012  INFO QNetsimEngine:347 SIMULATION (QNetsimEngine) AT 261:00:00 : #links=41 #nodes=12
2018-04-27 09:51:57,012  INFO QSim:506 SIMULATION (NEW QSim) AT 261:00:00 : #Veh=621 lost=0 simT=75600.0s realT=17s; (s/r): 4447.058823529412
2018-04-27 09:51:57,012  INFO Gbl:54 used RAM: 184798480B = 180467kB = 176MB  free: 585380592B = 558MB  total: 770179072B = 734MB
2018-04-27 09:51:57,242  INFO QNetsimEngine:347 SIMULATION (QNetsimEngine) AT 262:00:00 : #links=37 #nodes=7
2018-04-27 09:51:57,242  INFO QSim:506 SIMULATION (NEW QSim) AT 262:00:00 : #Veh=561 lost=0 simT=79200.0s realT=17s; (s/r): 4658.823529411765
2018-04-27 09:51:57,242  INFO Gbl:54 used RAM: 187163288B = 182776kB = 178MB  free: 583015784B = 556MB  total: 770179072B = 734MB
2018-04-27 09:51:57,466  INFO QNetsimEngine:347 SIMULATION (QNetsimEngine) AT 263:00:00 : #links=36 #nodes=3
2018-04-27 09:51:57,466  INFO QSim:506 SIMULATION (NEW QSim) AT 263:00:00 : #Veh=501 lost=0 simT=82800.0s realT=17s; (s/r): 4870.588235294118
2018-04-27 09:51:57,467  INFO Gbl:54 used RAM: 198443344B = 193792kB = 189MB  free: 571735728B = 545MB  total: 770179072B = 734MB
2018-04-27 09:51:57,690  INFO QNetsimEngine:347 SIMULATION (QNetsimEngine) AT 264:00:00 : #links=36 #nodes=3
2018-04-27 09:51:57,690  INFO QSim:506 SIMULATION (NEW QSim) AT 264:00:00 : #Veh=441 lost=0 simT=86400.0s realT=17s; (s/r): 5082.35294117647
2018-04-27 09:51:57,690  INFO Gbl:54 used RAM: 200808192B = 196101kB = 191MB  free: 569370880B = 542MB  total: 770179072B = 734MB
2018-04-27 09:51:57,952  INFO QNetsimEngine:347 SIMULATION (QNetsimEngine) AT 265:00:00 : #links=36 #nodes=4
2018-04-27 09:51:57,952  INFO QSim:506 SIMULATION (NEW QSim) AT 265:00:00 : #Veh=381 lost=0 simT=90000.0s realT=18s; (s/r): 5000.0
2018-04-27 09:51:57,952  INFO Gbl:54 used RAM: 212088304B = 207117kB = 202MB  free: 558090768B = 532MB  total: 770179072B = 734MB
2018-04-27 09:51:58,213  INFO QNetsimEngine:347 SIMULATION (QNetsimEngine) AT 266:00:00 : #links=34 #nodes=3
2018-04-27 09:51:58,213  INFO QSim:506 SIMULATION (NEW QSim) AT 266:00:00 : #Veh=321 lost=0 simT=93600.0s realT=18s; (s/r): 5200.0
2018-04-27 09:51:58,213  INFO Gbl:54 used RAM: 214453112B = 209426kB = 204MB  free: 555725960B = 529MB  total: 770179072B = 734MB
2018-04-27 09:51:58,468  INFO QNetsimEngine:347 SIMULATION (QNetsimEngine) AT 267:00:00 : #links=23 #nodes=0
2018-04-27 09:51:58,468  INFO QSim:506 SIMULATION (NEW QSim) AT 267:00:00 : #Veh=261 lost=0 simT=97200.0s realT=18s; (s/r): 5400.0
2018-04-27 09:51:58,468  INFO Gbl:54 used RAM: 223368376B = 218133kB = 213MB  free: 546810696B = 521MB  total: 770179072B = 734MB
2018-04-27 09:51:58,725  INFO QNetsimEngine:347 SIMULATION (QNetsimEngine) AT 268:00:00 : #links=18 #nodes=0
2018-04-27 09:51:58,725  INFO QSim:506 SIMULATION (NEW QSim) AT 268:00:00 : #Veh=201 lost=0 simT=100800.0s realT=18s; (s/r): 5600.0
2018-04-27 09:51:58,725  INFO Gbl:54 used RAM: 225733184B = 220442kB = 215MB  free: 544445888B = 519MB  total: 770179072B = 734MB
2018-04-27 09:51:58,964  INFO QNetsimEngine:347 SIMULATION (QNetsimEngine) AT 269:00:00 : #links=14 #nodes=0
2018-04-27 09:51:58,965  INFO QSim:506 SIMULATION (NEW QSim) AT 269:00:00 : #Veh=141 lost=0 simT=104400.0s realT=19s; (s/r): 5494.736842105263
2018-04-27 09:51:58,965  INFO Gbl:54 used RAM: 231389128B = 225965kB = 220MB  free: 538789944B = 513MB  total: 770179072B = 734MB
2018-04-27 09:51:59,243  INFO QNetsimEngine:347 SIMULATION (QNetsimEngine) AT 270:00:00 : #links=11 #nodes=0
2018-04-27 09:51:59,244  INFO QSim:506 SIMULATION (NEW QSim) AT 270:00:00 : #Veh=81 lost=0 simT=108000.0s realT=19s; (s/r): 5684.210526315789
2018-04-27 09:51:59,244  INFO Gbl:54 used RAM: 231389128B = 225965kB = 220MB  free: 538789944B = 513MB  total: 770179072B = 734MB
2018-04-27 09:51:59,499  INFO QNetsimEngine:347 SIMULATION (QNetsimEngine) AT 271:00:00 : #links=6 #nodes=0
2018-04-27 09:51:59,499  INFO QSim:506 SIMULATION (NEW QSim) AT 271:00:00 : #Veh=21 lost=0 simT=111600.0s realT=19s; (s/r): 5873.684210526316
2018-04-27 09:51:59,499  INFO Gbl:54 used RAM: 237045128B = 231489kB = 226MB  free: 533133944B = 508MB  total: 770179072B = 734MB
2018-04-27 09:51:59,615  INFO AbstractController$8:215 ### ITERATION 0 fires after mobsim event
2018-04-27 09:51:59,615  INFO Gbl:187 Thread performance: Thread=class org.matsim.core.events.SimStepParallelEventsManagerImpl$ProcessEventsRunnable0  cpu-time=5.325463sec
2018-04-27 09:51:59,616  INFO ControlerListenerManagerImpl:248 calling notifyAfterMobsim on org.matsim.analysis.LegTimesControlerListener
2018-04-27 09:51:59,617  INFO LegTimesControlerListener:50 [0] average trip (probably: leg) duration is: 27858 seconds = 07:44:18
2018-04-27 09:51:59,618  INFO ControlerListenerManagerImpl:248 calling notifyAfterMobsim on org.matsim.core.scoring.EventsToActivities$1
2018-04-27 09:51:59,618  WARN CharyparNagelActivityScoring:252 The first and the last activity do not have the same type. 
2018-04-27 09:51:59,618  WARN CharyparNagelActivityScoring:253 Will score the first activity from midnight to its end, and the last activity from its start to midnight.
2018-04-27 09:51:59,618  WARN CharyparNagelActivityScoring:254 Because of the nonlinear function, this is not the same as scoring from start to end.
2018-04-27 09:51:59,619  WARN CharyparNagelActivityScoring:255 first activity: [type=evac][coord=null][linkId=12985-18321][startTime=undefined][endTime=240:00:00][duration=undefined][facilityId=null]
2018-04-27 09:51:59,619  WARN CharyparNagelActivityScoring:256 last activity: [type=safe][coord=null][linkId=11119-15923][startTime=242:33:54][endTime=undefined][duration=undefined][facilityId=null]
2018-04-27 09:51:59,620  WARN CharyparNagelActivityScoring:257 This may also happen when plans are not completed when the simulation ends.
2018-04-27 09:51:59,620  WARN CharyparNagelActivityScoring:259 Additional warnings of this type are suppressed.
2018-04-27 09:51:59,650  INFO ControlerListenerManagerImpl:251 [it.0] all ControlerAfterMobsimListeners called.
2018-04-27 09:51:59,655  INFO AbstractController$4:152 ### ITERATION 0 fires scoring event
2018-04-27 09:51:59,668  INFO ControlerListenerManagerImpl:183 calling notifyScoring on org.matsim.core.scoring.PlansScoringImpl
2018-04-27 09:51:59,685  INFO NewScoreAssignerImpl:36 it: 0 msaStart: null
2018-04-27 09:51:59,696  INFO ControlerListenerManagerImpl:194 [it.0] all ControlerScoringListeners called.
2018-04-27 09:51:59,696  INFO AbstractController$5:160 ### ITERATION 0 fires iteration end event
2018-04-27 09:51:59,697  INFO ControlerListenerManagerImpl:160 calling notifyIterationEnds on org.matsim.core.controler.corelisteners.EventsHandlingImpl
2018-04-27 09:51:59,702  INFO EventsManagerImpl:161 removing Event-Handler: org.matsim.core.events.algorithms.EventWriterXML
2018-04-27 09:51:59,703  INFO EventsManagerImpl:161 removing Event-Handler: org.matsim.core.events.algorithms.EventWriterXML
2018-04-27 09:51:59,704  INFO ControlerListenerManagerImpl:160 calling notifyIterationEnds on org.matsim.core.scoring.PlansScoringImpl
2018-04-27 09:51:59,716  INFO ControlerListenerManagerImpl:167 calling notifyIterationEnds on org.matsim.counts.CountsControlerListener
2018-04-27 09:51:59,717  INFO ControlerListenerManagerImpl:167 calling notifyIterationEnds on org.matsim.analysis.ModeStatsControlerListener
2018-04-27 09:51:59,732  INFO ModeStatsControlerListener:155 -- mode share of mode bike = 0.0
2018-04-27 09:51:59,732  INFO ModeStatsControlerListener:155 -- mode share of mode car = 1.0
2018-04-27 09:51:59,732  INFO ModeStatsControlerListener:155 -- mode share of mode other = 0.0
2018-04-27 09:51:59,732  INFO ModeStatsControlerListener:155 -- mode share of mode pt = 0.0
2018-04-27 09:51:59,732  INFO ModeStatsControlerListener:155 -- mode share of mode ride = 0.0
2018-04-27 09:51:59,733  INFO ModeStatsControlerListener:155 -- mode share of mode walk = 0.0
2018-04-27 09:51:59,733  INFO ControlerListenerManagerImpl:167 calling notifyIterationEnds on org.matsim.analysis.ScoreStatsControlerListener
2018-04-27 09:51:59,742  INFO ScoreStatsControlerListener:191 -- avg. score of the executed plan of each agent: -46.43102606005135
2018-04-27 09:51:59,743  INFO ScoreStatsControlerListener:192 -- avg. score of the worst plan of each agent: -46.43102606005135
2018-04-27 09:51:59,743  INFO ScoreStatsControlerListener:193 -- avg. of the avg. plan score per agent: -46.43102606005135
2018-04-27 09:51:59,743  INFO ScoreStatsControlerListener:194 -- avg. score of the best plan of each agent: -46.43102606005135
2018-04-27 09:51:59,744  INFO ControlerListenerManagerImpl:167 calling notifyIterationEnds on org.matsim.analysis.TravelDistanceStatsControlerListener
2018-04-27 09:51:59,751  INFO TravelDistanceStats:128 [TravelDistanceStats] using 2 thread(s).
2018-04-27 09:51:59,756  INFO TravelDistanceStats:141 [TravelDistanceStats] all threads finished.
2018-04-27 09:51:59,757  INFO TravelDistanceStats:161 -- average of the average leg distance per plan (executed plans only): 18962.507807734877
2018-04-27 09:51:59,757  INFO TravelDistanceStats:162 (TravelDistanceStats takes an average over all legs where the simulation reports travelled distances. These are car legs, pt legs,
2018-04-27 09:51:59,757  INFO TravelDistanceStats:163 (and teleported legs whose route contains a distance.)
2018-04-27 09:51:59,757  INFO ControlerListenerManagerImpl:167 calling notifyIterationEnds on org.matsim.analysis.LegHistogramListener
2018-04-27 09:51:59,763  INFO LegHistogramListener:72 number of legs:	7649	100%
2018-04-27 09:51:59,764  INFO LegHistogramListener:79 number of car legs:	7649	100.0%
2018-04-27 09:52:04,468  INFO ControlerListenerManagerImpl:167 calling notifyIterationEnds on org.matsim.analysis.LinkStatsControlerListener
2018-04-27 09:52:04,469  INFO ControlerListenerManagerImpl:171 [it.0] all ControlerIterationEndsListeners called.
2018-04-27 09:52:04,817  INFO AbstractController:170 ### ITERATION 0 ENDS
2018-04-27 09:52:04,817  INFO AbstractController:171 ###################################################
2018-04-27 09:52:04,817  INFO MatsimRuntimeModifications:58 S H U T D O W N   ---   start shutdown.
2018-04-27 09:52:04,817  INFO ControlerListenerManagerImpl:121 calling notifyShutdown on org.matsim.core.controler.corelisteners.EventsHandlingImpl
2018-04-27 09:52:04,817  INFO ControlerListenerManagerImpl:121 calling notifyShutdown on org.matsim.core.controler.corelisteners.DumpDataAtEndImpl
2018-04-27 09:52:04,824  INFO Counter:61 [PopulationWriter] dumped person # 1
2018-04-27 09:52:04,824  INFO Counter:61 [PopulationWriter] dumped person # 2
2018-04-27 09:52:04,825  INFO Counter:61 [PopulationWriter] dumped person # 4
2018-04-27 09:52:04,825  INFO Counter:61 [PopulationWriter] dumped person # 8
2018-04-27 09:52:04,825  INFO Counter:61 [PopulationWriter] dumped person # 16
2018-04-27 09:52:04,826  INFO Counter:61 [PopulationWriter] dumped person # 32
2018-04-27 09:52:04,827  INFO Counter:61 [PopulationWriter] dumped person # 64
2018-04-27 09:52:04,831  INFO Counter:61 [PopulationWriter] dumped person # 128
2018-04-27 09:52:04,836  INFO Counter:61 [PopulationWriter] dumped person # 256
2018-04-27 09:52:04,845  INFO Counter:61 [PopulationWriter] dumped person # 512
2018-04-27 09:52:04,871  INFO Counter:61 [PopulationWriter] dumped person # 1024
2018-04-27 09:52:04,912  INFO Counter:61 [PopulationWriter] dumped person # 2048
2018-04-27 09:52:04,973  INFO Counter:61 [PopulationWriter] dumped person # 4096
2018-04-27 09:52:05,078  INFO PopulationWriter:139 Population written to: ./output/output_plans.xml.gz
2018-04-27 09:52:05,078  INFO Counter:67 [PopulationWriter] dumped person # 7649
2018-04-27 09:52:05,081  INFO NetworkWriter:68 Writing network to file: ./output/output_network.xml.gz...
2018-04-27 09:52:05,325  INFO NetworkWriter:71 done.
2018-04-27 09:52:05,326  INFO Config:561 setting context to [file:/Users/kainagel/git/au-flood-evacuation/scenarios/fem2016/]
2018-04-27 09:52:05,373  INFO VehicleWriterV1:55 Vehicles written to: ./output/output_vehicles.xml.gz
2018-04-27 09:52:05,379  INFO Counter:67 [HouseholdsWriter] dumped household # 0
2018-04-27 09:52:05,383  INFO LanesWriter:65 Using LaneDefinitionWriter20...
2018-04-27 09:52:05,383  INFO LanesWriter:74 writing to file: ./output/output_lanes.xml.gz
2018-04-27 09:52:05,687  INFO ControlerListenerManagerImpl:126 calling notifyShutdown on org.matsim.analysis.ModeStatsControlerListener
2018-04-27 09:52:05,688  INFO ControlerListenerManagerImpl:126 calling notifyShutdown on org.matsim.analysis.ScoreStatsControlerListener
2018-04-27 09:52:05,688  INFO ControlerListenerManagerImpl:126 calling notifyShutdown on org.matsim.analysis.TravelDistanceStatsControlerListener
2018-04-27 09:52:05,689  INFO ControlerListenerManagerImpl:129 all ControlerShutdownListeners called.
2018-04-27 09:52:05,689  INFO MatsimRuntimeModifications:81 S H U T D O W N   ---   shutdown completed.
2018-04-27 09:52:05,689  INFO OutputDirectoryLogging:146 closing the logfile, i.e. messages sent to the logger after this message are not written to the logfile.
