2018-07-29 19:11:57,833  INFO Config:569 setting context to [file:/Users/kainagel/git/au-flood-evacuation/]
2018-07-29 19:11:57,912  INFO MatsimXmlParser:155 starting to parse xml from url file:/Users/kainagel/git/au-flood-evacuation/scenarios/fem2016_v20180307/configSmall.xml ...
2018-07-29 19:11:57,937  INFO ConfigReader:102 using config_v2-reader
2018-07-29 19:11:57,937  INFO MatsimXmlParser:270 Trying to load http://www.matsim.org/files/dtd/config_v2.dtd. In some cases (e.g. network interface up but no connection), this may take a bit.
2018-07-29 19:11:58,188  INFO Config:569 setting context to [file:/Users/kainagel/git/au-flood-evacuation/scenarios/fem2016_v20180307/configSmall.xml]
2018-07-29 19:11:58,459  WARN RunMatsim4FloodEvacuation:421 runType=justRunInitialPlansFile
2018-07-29 19:11:58,461  INFO MatsimXmlParser:155 starting to parse xml from url file:/Users/kainagel/git/au-flood-evacuation/scenarios/fem2016_v20180307/overridingConfig.xml ...
2018-07-29 19:11:58,464  INFO ConfigReader:102 using config_v2-reader
2018-07-29 19:11:58,465  INFO MatsimXmlParser:270 Trying to load http://www.matsim.org/files/dtd/config_v2.dtd. In some cases (e.g. network interface up but no connection), this may take a bit.
2018-07-29 19:11:58,571  INFO Config:569 setting context to [file:/Users/kainagel/git/au-flood-evacuation/]
2018-07-29 19:11:58,631  INFO ScenarioLoaderImpl:107 loading scenario from base directory: /Users/kainagel/git/au-flood-evacuation/
2018-07-29 19:11:58,632  INFO ScenarioLoaderImpl:129 loading network from file:/Users/kainagel/git/au-flood-evacuation/scenarios/fem2016_v20180307/hn_net_ses_emme_2016_V12_network.xml.gz
2018-07-29 19:11:58,637  INFO MatsimXmlParser:155 starting to parse xml from url file:/Users/kainagel/git/au-flood-evacuation/scenarios/fem2016_v20180307/hn_net_ses_emme_2016_V12_network.xml.gz ...
2018-07-29 19:11:58,648  INFO MatsimNetworkReader:95 using network_v2-reader.
2018-07-29 19:11:58,649  INFO MatsimXmlParser:270 Trying to load http://www.matsim.org/files/dtd/network_v2.dtd. In some cases (e.g. network interface up but no connection), this may take a bit.
2018-07-29 19:11:58,725  INFO NetworkImpl:167  node # 1
2018-07-29 19:11:58,726  INFO NetworkImpl:167  node # 4
2018-07-29 19:11:58,728  INFO NetworkImpl:167  node # 16
2018-07-29 19:11:58,732  INFO NetworkImpl:167  node # 64
2018-07-29 19:11:58,747  INFO NetworkImpl:167  node # 256
2018-07-29 19:11:58,780  INFO NetworkImpl:167  node # 1024
2018-07-29 19:11:58,830  INFO NetworkImpl:163  link # 1
2018-07-29 19:11:58,831  INFO NetworkImpl:163  link # 4
2018-07-29 19:11:58,833  INFO NetworkImpl:163  link # 16
2018-07-29 19:11:58,839  INFO NetworkImpl:163  link # 64
2018-07-29 19:11:58,861  INFO NetworkImpl:163  link # 256
2018-07-29 19:11:58,910  INFO NetworkImpl:163  link # 1024
2018-07-29 19:11:59,043  INFO NetworkImpl:163  link # 4096
2018-07-29 19:11:59,210  INFO ScenarioLoaderImpl:147 loading network change events from /Users/kainagel/git/au-flood-evacuation/scenarios/fem2016_v20180307/d09693_H_change_events.xml.gz
2018-07-29 19:11:59,217  INFO MatsimXmlParser:155 starting to parse xml from url file:/Users/kainagel/git/au-flood-evacuation/scenarios/fem2016_v20180307/d09693_H_change_events.xml.gz ...
2018-07-29 19:11:59,220  INFO MatsimXmlParser:270 Trying to load http://www.matsim.org/files/dtd/networkChangeEvents.xsd. In some cases (e.g. network interface up but no connection), this may take a bit.
2018-07-29 19:11:59,303  INFO MatsimXmlParser:270 Trying to load http://www.matsim.org/files/dtd/matsimCommon.xsd. In some cases (e.g. network interface up but no connection), this may take a bit.
2018-07-29 19:11:59,409  INFO ScenarioLoaderImpl:181 no facilities file set in config, therefore not loading any facilities.  This is not a problem except if you are using facilities
2018-07-29 19:11:59,410  INFO ScenarioLoaderImpl:191 no facility-attributes file set in config, not loading any facility attributes
2018-07-29 19:11:59,410  INFO ScenarioLoaderImpl:198 loading population from file:/Users/kainagel/git/au-flood-evacuation/scenarios/fem2016_v20180307/pop.xml.gz
2018-07-29 19:11:59,418  INFO MatsimXmlParser:155 starting to parse xml from url file:/Users/kainagel/git/au-flood-evacuation/scenarios/fem2016_v20180307/pop.xml.gz ...
2018-07-29 19:11:59,420  INFO PopulationReader:109 using population_v6-reader.
2018-07-29 19:11:59,420  INFO MatsimXmlParser:270 Trying to load http://www.matsim.org/files/dtd/population_v6.dtd. In some cases (e.g. network interface up but no connection), this may take a bit.
2018-07-29 19:11:59,496  INFO PopulationImpl:112  person # 1
2018-07-29 19:11:59,497  INFO PopulationImpl:112  person # 4
2018-07-29 19:11:59,499  INFO PopulationImpl:112  person # 16
2018-07-29 19:11:59,506  INFO PopulationImpl:112  person # 64
2018-07-29 19:11:59,527  INFO PopulationImpl:112  person # 256
2018-07-29 19:11:59,561  INFO PopulationImpl:112  person # 1024
2018-07-29 19:11:59,641  INFO PopulationImpl:112  person # 4096
2018-07-29 19:11:59,936  INFO PopulationImpl:112  person # 16384
2018-07-29 19:12:00,948  INFO PopulationImpl:112  person # 65536
2018-07-29 19:12:01,126  INFO PopulationUtils:1004  person # 76169
2018-07-29 19:12:01,127  INFO ScenarioLoaderImpl:234 no person-attributes file set in config, not loading any person attributes
2018-07-29 19:12:01,127  INFO ScenarioLoaderImpl:246 no households file set in config, not loading households
2018-07-29 19:12:01,127  INFO ScenarioLoaderImpl:257 no household-attributes file set in config, not loading any household attributes
2018-07-29 19:12:01,127  INFO ScenarioLoaderImpl:283 no transit schedule file set in config, not loading any transit schedule
2018-07-29 19:12:01,127  INFO ScenarioLoaderImpl:310 no transit vehicles file set in config, not loading any transit vehicles
2018-07-29 19:12:01,161  INFO FEMUtils:160 safeLinkIDs:
2018-07-29 19:12:01,161  INFO FEMUtils:162 13082-11096
2018-07-29 19:12:01,161  INFO FEMUtils:162 11119-15923
2018-07-29 19:12:01,161  INFO FEMUtils:162 15136-24070
2018-07-29 19:12:01,162  INFO FEMUtils:162 10958-13225
2018-07-29 19:12:01,162  INFO FEMUtils:162 10946-10945
2018-07-29 19:12:01,162  INFO FEMUtils:162 24690-10392
2018-07-29 19:12:01,162  INFO FEMUtils:162 40089-40085
2018-07-29 19:12:01,162  INFO FEMUtils:162 11139-10480
2018-07-29 19:12:01,162  INFO FEMUtils:162 50009-2774
2018-07-29 19:12:01,163  INFO FEMUtils:162 18423-18439
2018-07-29 19:12:01,163  INFO FEMUtils:162 51258-50063
2018-07-29 19:12:01,163  INFO FEMUtils:162 52104-52105
2018-07-29 19:12:01,163  INFO FEMUtils:162 40394-40402
2018-07-29 19:12:01,958  INFO SimStepParallelEventsManagerImpl:79 number of threads=1
2018-07-29 19:12:01,963  INFO EventsManagerImpl:144 adding Event-Handler: org.matsim.core.trafficmonitoring.TravelTimeCalculator
2018-07-29 19:12:01,963  INFO EventsManagerImpl:148   org.matsim.api.core.v01.events.handler.LinkEnterEventHandler
2018-07-29 19:12:01,963  INFO EventsManagerImpl:207     > org.matsim.api.core.v01.events.LinkEnterEvent
2018-07-29 19:12:01,964  INFO EventsManagerImpl:148   org.matsim.api.core.v01.events.handler.LinkLeaveEventHandler
2018-07-29 19:12:01,965  INFO EventsManagerImpl:207     > org.matsim.api.core.v01.events.LinkLeaveEvent
2018-07-29 19:12:01,965  INFO EventsManagerImpl:148   org.matsim.api.core.v01.events.handler.VehicleEntersTrafficEventHandler
2018-07-29 19:12:01,965  INFO EventsManagerImpl:207     > org.matsim.api.core.v01.events.VehicleEntersTrafficEvent
2018-07-29 19:12:01,965  INFO EventsManagerImpl:148   org.matsim.api.core.v01.events.handler.VehicleLeavesTrafficEventHandler
2018-07-29 19:12:01,966  INFO EventsManagerImpl:207     > org.matsim.api.core.v01.events.VehicleLeavesTrafficEvent
2018-07-29 19:12:01,966  INFO EventsManagerImpl:148   org.matsim.core.api.experimental.events.handler.VehicleArrivesAtFacilityEventHandler
2018-07-29 19:12:01,966  INFO EventsManagerImpl:207     > org.matsim.core.api.experimental.events.VehicleArrivesAtFacilityEvent
2018-07-29 19:12:01,966  INFO EventsManagerImpl:148   org.matsim.api.core.v01.events.handler.VehicleAbortsEventHandler
2018-07-29 19:12:01,967  INFO EventsManagerImpl:207     > org.matsim.api.core.v01.events.VehicleAbortsEvent
2018-07-29 19:12:01,967  INFO EventsManagerImpl:156 
2018-07-29 19:12:01,967  INFO EventsManagerImpl:144 adding Event-Handler: org.matsim.core.trafficmonitoring.TravelTimeCalculator
2018-07-29 19:12:01,968  INFO EventsManagerImpl:148   org.matsim.api.core.v01.events.handler.LinkEnterEventHandler
2018-07-29 19:12:01,968  INFO EventsManagerImpl:207     > org.matsim.api.core.v01.events.LinkEnterEvent
2018-07-29 19:12:01,968  INFO EventsManagerImpl:148   org.matsim.api.core.v01.events.handler.LinkLeaveEventHandler
2018-07-29 19:12:01,969  INFO EventsManagerImpl:207     > org.matsim.api.core.v01.events.LinkLeaveEvent
2018-07-29 19:12:01,969  INFO EventsManagerImpl:148   org.matsim.api.core.v01.events.handler.VehicleEntersTrafficEventHandler
2018-07-29 19:12:01,969  INFO EventsManagerImpl:207     > org.matsim.api.core.v01.events.VehicleEntersTrafficEvent
2018-07-29 19:12:01,970  INFO EventsManagerImpl:148   org.matsim.api.core.v01.events.handler.VehicleLeavesTrafficEventHandler
2018-07-29 19:12:01,970  INFO EventsManagerImpl:207     > org.matsim.api.core.v01.events.VehicleLeavesTrafficEvent
2018-07-29 19:12:01,971  INFO EventsManagerImpl:148   org.matsim.core.api.experimental.events.handler.VehicleArrivesAtFacilityEventHandler
2018-07-29 19:12:01,971  INFO EventsManagerImpl:207     > org.matsim.core.api.experimental.events.VehicleArrivesAtFacilityEvent
2018-07-29 19:12:01,971  INFO EventsManagerImpl:148   org.matsim.api.core.v01.events.handler.VehicleAbortsEventHandler
2018-07-29 19:12:01,971  INFO EventsManagerImpl:207     > org.matsim.api.core.v01.events.VehicleAbortsEvent
2018-07-29 19:12:01,972  INFO EventsManagerImpl:156 
2018-07-29 19:12:01,976  INFO NetworkImpl:167  node # 1
2018-07-29 19:12:01,976  INFO NetworkImpl:167  node # 4
2018-07-29 19:12:01,977  INFO NetworkImpl:167  node # 16
2018-07-29 19:12:01,977  INFO NetworkImpl:167  node # 64
2018-07-29 19:12:01,978  INFO NetworkImpl:167  node # 256
2018-07-29 19:12:01,979  INFO NetworkImpl:167  node # 1024
2018-07-29 19:12:01,983  INFO NetworkImpl:163  link # 1
2018-07-29 19:12:01,983  INFO NetworkImpl:163  link # 4
2018-07-29 19:12:01,984  INFO NetworkImpl:163  link # 16
2018-07-29 19:12:01,985  INFO NetworkImpl:163  link # 64
2018-07-29 19:12:01,987  INFO NetworkImpl:163  link # 256
2018-07-29 19:12:01,992  INFO NetworkImpl:163  link # 1024
2018-07-29 19:12:02,002  INFO NetworkImpl:163  link # 4096
2018-07-29 19:12:02,051  INFO StrategyManager:62 global innovation switch off after iteration: 0
2018-07-29 19:12:02,053  INFO GenericStrategyManager:363 setting PlanSelectorForRemoval to class org.matsim.core.replanning.selectors.WorstPlanForRemovalSelector
2018-07-29 19:12:02,055  INFO EventsManagerImpl:144 adding Event-Handler: org.matsim.core.scoring.EventsToActivities
2018-07-29 19:12:02,055  INFO EventsManagerImpl:148   org.matsim.api.core.v01.events.handler.ActivityStartEventHandler
2018-07-29 19:12:02,056  INFO EventsManagerImpl:207     > org.matsim.api.core.v01.events.ActivityStartEvent
2018-07-29 19:12:02,056  INFO EventsManagerImpl:148   org.matsim.api.core.v01.events.handler.ActivityEndEventHandler
2018-07-29 19:12:02,056  INFO EventsManagerImpl:207     > org.matsim.api.core.v01.events.ActivityEndEvent
2018-07-29 19:12:02,057  INFO EventsManagerImpl:156 
2018-07-29 19:12:02,060  INFO EventsManagerImpl:144 adding Event-Handler: org.matsim.core.scoring.EventsToActivities
2018-07-29 19:12:02,060  INFO EventsManagerImpl:148   org.matsim.api.core.v01.events.handler.ActivityStartEventHandler
2018-07-29 19:12:02,060  INFO EventsManagerImpl:207     > org.matsim.api.core.v01.events.ActivityStartEvent
2018-07-29 19:12:02,061  INFO EventsManagerImpl:148   org.matsim.api.core.v01.events.handler.ActivityEndEventHandler
2018-07-29 19:12:02,061  INFO EventsManagerImpl:207     > org.matsim.api.core.v01.events.ActivityEndEvent
2018-07-29 19:12:02,061  INFO EventsManagerImpl:156 
2018-07-29 19:12:02,062  INFO EventsManagerImpl:144 adding Event-Handler: org.matsim.core.scoring.EventsToLegs
2018-07-29 19:12:02,062  INFO EventsManagerImpl:148   org.matsim.api.core.v01.events.handler.PersonDepartureEventHandler
2018-07-29 19:12:02,063  INFO EventsManagerImpl:207     > org.matsim.api.core.v01.events.PersonDepartureEvent
2018-07-29 19:12:02,063  INFO EventsManagerImpl:148   org.matsim.api.core.v01.events.handler.PersonArrivalEventHandler
2018-07-29 19:12:02,063  INFO EventsManagerImpl:207     > org.matsim.api.core.v01.events.PersonArrivalEvent
2018-07-29 19:12:02,063  INFO EventsManagerImpl:148   org.matsim.api.core.v01.events.handler.LinkLeaveEventHandler
2018-07-29 19:12:02,064  INFO EventsManagerImpl:207     > org.matsim.api.core.v01.events.LinkLeaveEvent
2018-07-29 19:12:02,064  INFO EventsManagerImpl:148   org.matsim.api.core.v01.events.handler.LinkEnterEventHandler
2018-07-29 19:12:02,064  INFO EventsManagerImpl:207     > org.matsim.api.core.v01.events.LinkEnterEvent
2018-07-29 19:12:02,065  INFO EventsManagerImpl:148   org.matsim.core.api.experimental.events.handler.TeleportationArrivalEventHandler
2018-07-29 19:12:02,065  INFO EventsManagerImpl:207     > org.matsim.core.api.experimental.events.TeleportationArrivalEvent
2018-07-29 19:12:02,065  INFO EventsManagerImpl:148   org.matsim.api.core.v01.events.handler.TransitDriverStartsEventHandler
2018-07-29 19:12:02,066  INFO EventsManagerImpl:207     > org.matsim.api.core.v01.events.TransitDriverStartsEvent
2018-07-29 19:12:02,066  INFO EventsManagerImpl:148   org.matsim.api.core.v01.events.handler.PersonEntersVehicleEventHandler
2018-07-29 19:12:02,066  INFO EventsManagerImpl:207     > org.matsim.api.core.v01.events.PersonEntersVehicleEvent
2018-07-29 19:12:02,067  INFO EventsManagerImpl:148   org.matsim.core.api.experimental.events.handler.VehicleArrivesAtFacilityEventHandler
2018-07-29 19:12:02,067  INFO EventsManagerImpl:207     > org.matsim.core.api.experimental.events.VehicleArrivesAtFacilityEvent
2018-07-29 19:12:02,067  INFO EventsManagerImpl:148   org.matsim.api.core.v01.events.handler.VehicleEntersTrafficEventHandler
2018-07-29 19:12:02,067  INFO EventsManagerImpl:207     > org.matsim.api.core.v01.events.VehicleEntersTrafficEvent
2018-07-29 19:12:02,068  INFO EventsManagerImpl:148   org.matsim.api.core.v01.events.handler.VehicleLeavesTrafficEventHandler
2018-07-29 19:12:02,068  INFO EventsManagerImpl:207     > org.matsim.api.core.v01.events.VehicleLeavesTrafficEvent
2018-07-29 19:12:02,068  INFO EventsManagerImpl:156 
2018-07-29 19:12:02,069  INFO EventsManagerImpl:144 adding Event-Handler: org.matsim.core.scoring.EventsToLegs
2018-07-29 19:12:02,069  INFO EventsManagerImpl:148   org.matsim.api.core.v01.events.handler.PersonDepartureEventHandler
2018-07-29 19:12:02,069  INFO EventsManagerImpl:207     > org.matsim.api.core.v01.events.PersonDepartureEvent
2018-07-29 19:12:02,070  INFO EventsManagerImpl:148   org.matsim.api.core.v01.events.handler.PersonArrivalEventHandler
2018-07-29 19:12:02,070  INFO EventsManagerImpl:207     > org.matsim.api.core.v01.events.PersonArrivalEvent
2018-07-29 19:12:02,070  INFO EventsManagerImpl:148   org.matsim.api.core.v01.events.handler.LinkLeaveEventHandler
2018-07-29 19:12:02,070  INFO EventsManagerImpl:207     > org.matsim.api.core.v01.events.LinkLeaveEvent
2018-07-29 19:12:02,071  INFO EventsManagerImpl:148   org.matsim.api.core.v01.events.handler.LinkEnterEventHandler
2018-07-29 19:12:02,071  INFO EventsManagerImpl:207     > org.matsim.api.core.v01.events.LinkEnterEvent
2018-07-29 19:12:02,071  INFO EventsManagerImpl:148   org.matsim.core.api.experimental.events.handler.TeleportationArrivalEventHandler
2018-07-29 19:12:02,071  INFO EventsManagerImpl:207     > org.matsim.core.api.experimental.events.TeleportationArrivalEvent
2018-07-29 19:12:02,071  INFO EventsManagerImpl:148   org.matsim.api.core.v01.events.handler.TransitDriverStartsEventHandler
2018-07-29 19:12:02,072  INFO EventsManagerImpl:207     > org.matsim.api.core.v01.events.TransitDriverStartsEvent
2018-07-29 19:12:02,072  INFO EventsManagerImpl:148   org.matsim.api.core.v01.events.handler.PersonEntersVehicleEventHandler
2018-07-29 19:12:02,072  INFO EventsManagerImpl:207     > org.matsim.api.core.v01.events.PersonEntersVehicleEvent
2018-07-29 19:12:02,072  INFO EventsManagerImpl:148   org.matsim.core.api.experimental.events.handler.VehicleArrivesAtFacilityEventHandler
2018-07-29 19:12:02,073  INFO EventsManagerImpl:207     > org.matsim.core.api.experimental.events.VehicleArrivesAtFacilityEvent
2018-07-29 19:12:02,073  INFO EventsManagerImpl:148   org.matsim.api.core.v01.events.handler.VehicleEntersTrafficEventHandler
2018-07-29 19:12:02,073  INFO EventsManagerImpl:207     > org.matsim.api.core.v01.events.VehicleEntersTrafficEvent
2018-07-29 19:12:02,073  INFO EventsManagerImpl:148   org.matsim.api.core.v01.events.handler.VehicleLeavesTrafficEventHandler
2018-07-29 19:12:02,073  INFO EventsManagerImpl:207     > org.matsim.api.core.v01.events.VehicleLeavesTrafficEvent
2018-07-29 19:12:02,074  INFO EventsManagerImpl:156 
2018-07-29 19:12:02,075  INFO EventsManagerImpl:144 adding Event-Handler: org.matsim.core.scoring.ScoringFunctionsForPopulation
2018-07-29 19:12:02,075  INFO EventsManagerImpl:148   org.matsim.core.events.handler.BasicEventHandler
2018-07-29 19:12:02,075  INFO EventsManagerImpl:207     > org.matsim.api.core.v01.events.Event
2018-07-29 19:12:02,075  INFO EventsManagerImpl:148   org.matsim.core.scoring.EventsToLegs$LegHandler
2018-07-29 19:12:02,075  INFO EventsManagerImpl:148   org.matsim.core.scoring.EventsToActivities$ActivityHandler
2018-07-29 19:12:02,076  INFO EventsManagerImpl:156 
2018-07-29 19:12:02,076  INFO EventsManagerImpl:144 adding Event-Handler: org.matsim.core.scoring.ScoringFunctionsForPopulation
2018-07-29 19:12:02,076  INFO EventsManagerImpl:148   org.matsim.core.events.handler.BasicEventHandler
2018-07-29 19:12:02,076  INFO EventsManagerImpl:207     > org.matsim.api.core.v01.events.Event
2018-07-29 19:12:02,076  INFO EventsManagerImpl:148   org.matsim.core.scoring.EventsToLegs$LegHandler
2018-07-29 19:12:02,077  INFO EventsManagerImpl:148   org.matsim.core.scoring.EventsToActivities$ActivityHandler
2018-07-29 19:12:02,077  INFO EventsManagerImpl:156 
2018-07-29 19:12:02,077  INFO EventsManagerImpl:144 adding Event-Handler: org.matsim.core.events.algorithms.Vehicle2DriverEventHandler
2018-07-29 19:12:02,077  INFO EventsManagerImpl:148   org.matsim.api.core.v01.events.handler.VehicleEntersTrafficEventHandler
2018-07-29 19:12:02,077  INFO EventsManagerImpl:207     > org.matsim.api.core.v01.events.VehicleEntersTrafficEvent
2018-07-29 19:12:02,078  INFO EventsManagerImpl:148   org.matsim.api.core.v01.events.handler.VehicleLeavesTrafficEventHandler
2018-07-29 19:12:02,078  INFO EventsManagerImpl:207     > org.matsim.api.core.v01.events.VehicleLeavesTrafficEvent
2018-07-29 19:12:02,078  INFO EventsManagerImpl:156 
2018-07-29 19:12:02,078  INFO EventsManagerImpl:144 adding Event-Handler: org.matsim.core.events.algorithms.Vehicle2DriverEventHandler
2018-07-29 19:12:02,078  INFO EventsManagerImpl:148   org.matsim.api.core.v01.events.handler.VehicleEntersTrafficEventHandler
2018-07-29 19:12:02,079  INFO EventsManagerImpl:207     > org.matsim.api.core.v01.events.VehicleEntersTrafficEvent
2018-07-29 19:12:02,079  INFO EventsManagerImpl:148   org.matsim.api.core.v01.events.handler.VehicleLeavesTrafficEventHandler
2018-07-29 19:12:02,079  INFO EventsManagerImpl:207     > org.matsim.api.core.v01.events.VehicleLeavesTrafficEvent
2018-07-29 19:12:02,079  INFO EventsManagerImpl:156 
2018-07-29 19:12:02,081  INFO CalcLinkStats:151  resetting `count' to zero.  This info is here since we want to check when this is happening during normal simulation runs.  kai, jan'11
2018-07-29 19:12:02,106  INFO EventsManagerImpl:144 adding Event-Handler: org.matsim.analysis.VolumesAnalyzer
2018-07-29 19:12:02,107  INFO EventsManagerImpl:148   org.matsim.api.core.v01.events.handler.LinkLeaveEventHandler
2018-07-29 19:12:02,107  INFO EventsManagerImpl:207     > org.matsim.api.core.v01.events.LinkLeaveEvent
2018-07-29 19:12:02,107  INFO EventsManagerImpl:148   org.matsim.api.core.v01.events.handler.VehicleEntersTrafficEventHandler
2018-07-29 19:12:02,107  INFO EventsManagerImpl:207     > org.matsim.api.core.v01.events.VehicleEntersTrafficEvent
2018-07-29 19:12:02,108  INFO EventsManagerImpl:156 
2018-07-29 19:12:02,108  INFO EventsManagerImpl:144 adding Event-Handler: org.matsim.analysis.VolumesAnalyzer
2018-07-29 19:12:02,108  INFO EventsManagerImpl:148   org.matsim.api.core.v01.events.handler.LinkLeaveEventHandler
2018-07-29 19:12:02,108  INFO EventsManagerImpl:207     > org.matsim.api.core.v01.events.LinkLeaveEvent
2018-07-29 19:12:02,108  INFO EventsManagerImpl:148   org.matsim.api.core.v01.events.handler.VehicleEntersTrafficEventHandler
2018-07-29 19:12:02,109  INFO EventsManagerImpl:207     > org.matsim.api.core.v01.events.VehicleEntersTrafficEvent
2018-07-29 19:12:02,109  INFO EventsManagerImpl:156 
2018-07-29 19:12:02,110  INFO EventsManagerImpl:144 adding Event-Handler: org.matsim.analysis.LegHistogram
2018-07-29 19:12:02,110  INFO EventsManagerImpl:148   org.matsim.api.core.v01.events.handler.PersonDepartureEventHandler
2018-07-29 19:12:02,110  INFO EventsManagerImpl:207     > org.matsim.api.core.v01.events.PersonDepartureEvent
2018-07-29 19:12:02,110  INFO EventsManagerImpl:148   org.matsim.api.core.v01.events.handler.PersonArrivalEventHandler
2018-07-29 19:12:02,110  INFO EventsManagerImpl:207     > org.matsim.api.core.v01.events.PersonArrivalEvent
2018-07-29 19:12:02,111  INFO EventsManagerImpl:148   org.matsim.api.core.v01.events.handler.PersonStuckEventHandler
2018-07-29 19:12:02,111  INFO EventsManagerImpl:207     > org.matsim.api.core.v01.events.PersonStuckEvent
2018-07-29 19:12:02,111  INFO EventsManagerImpl:156 
2018-07-29 19:12:02,112  INFO EventsManagerImpl:144 adding Event-Handler: org.matsim.analysis.LegHistogram
2018-07-29 19:12:02,112  INFO EventsManagerImpl:148   org.matsim.api.core.v01.events.handler.PersonDepartureEventHandler
2018-07-29 19:12:02,112  INFO EventsManagerImpl:207     > org.matsim.api.core.v01.events.PersonDepartureEvent
2018-07-29 19:12:02,112  INFO EventsManagerImpl:148   org.matsim.api.core.v01.events.handler.PersonArrivalEventHandler
2018-07-29 19:12:02,112  INFO EventsManagerImpl:207     > org.matsim.api.core.v01.events.PersonArrivalEvent
2018-07-29 19:12:02,112  INFO EventsManagerImpl:148   org.matsim.api.core.v01.events.handler.PersonStuckEventHandler
2018-07-29 19:12:02,113  INFO EventsManagerImpl:207     > org.matsim.api.core.v01.events.PersonStuckEvent
2018-07-29 19:12:02,113  INFO EventsManagerImpl:156 
2018-07-29 19:12:02,113  INFO EventsManagerImpl:144 adding Event-Handler: org.matsim.analysis.CalcLegTimes
2018-07-29 19:12:02,113  INFO EventsManagerImpl:148   org.matsim.api.core.v01.events.handler.PersonDepartureEventHandler
2018-07-29 19:12:02,114  INFO EventsManagerImpl:207     > org.matsim.api.core.v01.events.PersonDepartureEvent
2018-07-29 19:12:02,114  INFO EventsManagerImpl:148   org.matsim.api.core.v01.events.handler.PersonArrivalEventHandler
2018-07-29 19:12:02,114  INFO EventsManagerImpl:207     > org.matsim.api.core.v01.events.PersonArrivalEvent
2018-07-29 19:12:02,114  INFO EventsManagerImpl:148   org.matsim.api.core.v01.events.handler.ActivityEndEventHandler
2018-07-29 19:12:02,115  INFO EventsManagerImpl:207     > org.matsim.api.core.v01.events.ActivityEndEvent
2018-07-29 19:12:02,115  INFO EventsManagerImpl:148   org.matsim.api.core.v01.events.handler.ActivityStartEventHandler
2018-07-29 19:12:02,115  INFO EventsManagerImpl:207     > org.matsim.api.core.v01.events.ActivityStartEvent
2018-07-29 19:12:02,115  INFO EventsManagerImpl:156 
2018-07-29 19:12:02,115  INFO EventsManagerImpl:144 adding Event-Handler: org.matsim.analysis.CalcLegTimes
2018-07-29 19:12:02,116  INFO EventsManagerImpl:148   org.matsim.api.core.v01.events.handler.PersonDepartureEventHandler
2018-07-29 19:12:02,116  INFO EventsManagerImpl:207     > org.matsim.api.core.v01.events.PersonDepartureEvent
2018-07-29 19:12:02,116  INFO EventsManagerImpl:148   org.matsim.api.core.v01.events.handler.PersonArrivalEventHandler
2018-07-29 19:12:02,116  INFO EventsManagerImpl:207     > org.matsim.api.core.v01.events.PersonArrivalEvent
2018-07-29 19:12:02,116  INFO EventsManagerImpl:148   org.matsim.api.core.v01.events.handler.ActivityEndEventHandler
2018-07-29 19:12:02,116  INFO EventsManagerImpl:207     > org.matsim.api.core.v01.events.ActivityEndEvent
2018-07-29 19:12:02,117  INFO EventsManagerImpl:148   org.matsim.api.core.v01.events.handler.ActivityStartEventHandler
2018-07-29 19:12:02,117  INFO EventsManagerImpl:207     > org.matsim.api.core.v01.events.ActivityStartEvent
2018-07-29 19:12:02,117  INFO EventsManagerImpl:156 
2018-07-29 19:12:02,119  INFO AbstractController:52 Used Controler-Class: org.matsim.core.controler.NewControler
2018-07-29 19:12:02,119  INFO Config:535 ConfigConsistencyChecker with runtime type=class org.matsim.core.config.consistency.ConfigConsistencyCheckerImpl was already added; not adding it a second time
2018-07-29 19:12:02,120  INFO EventsManagerImpl:144 adding Event-Handler: org.matsim.contrib.decongestion.tollSetting.DecongestionTollingPID
2018-07-29 19:12:02,120  INFO EventsManagerImpl:148   org.matsim.contrib.decongestion.tollSetting.DecongestionTollSetting
2018-07-29 19:12:02,120  INFO EventsManagerImpl:148   org.matsim.api.core.v01.events.handler.LinkLeaveEventHandler
2018-07-29 19:12:02,120  INFO EventsManagerImpl:207     > org.matsim.api.core.v01.events.LinkLeaveEvent
2018-07-29 19:12:02,120  INFO EventsManagerImpl:156 
2018-07-29 19:12:02,121  INFO EventsManagerImpl:144 adding Event-Handler: org.matsim.contrib.decongestion.tollSetting.DecongestionTollingPID
2018-07-29 19:12:02,121  INFO EventsManagerImpl:148   org.matsim.contrib.decongestion.tollSetting.DecongestionTollSetting
2018-07-29 19:12:02,121  INFO EventsManagerImpl:148   org.matsim.api.core.v01.events.handler.LinkLeaveEventHandler
2018-07-29 19:12:02,121  INFO EventsManagerImpl:207     > org.matsim.api.core.v01.events.LinkLeaveEvent
2018-07-29 19:12:02,121  INFO EventsManagerImpl:156 
2018-07-29 19:12:02,121  INFO EventsManagerImpl:144 adding Event-Handler: org.matsim.contrib.decongestion.handler.IntervalBasedTollingAll
2018-07-29 19:12:02,121  INFO EventsManagerImpl:148   org.matsim.api.core.v01.events.handler.LinkLeaveEventHandler
2018-07-29 19:12:02,121  INFO EventsManagerImpl:207     > org.matsim.api.core.v01.events.LinkLeaveEvent
2018-07-29 19:12:02,122  INFO EventsManagerImpl:148   org.matsim.contrib.decongestion.handler.IntervalBasedTolling
2018-07-29 19:12:02,122  INFO EventsManagerImpl:156 
2018-07-29 19:12:02,122  INFO EventsManagerImpl:144 adding Event-Handler: org.matsim.contrib.decongestion.handler.IntervalBasedTollingAll
2018-07-29 19:12:02,122  INFO EventsManagerImpl:148   org.matsim.api.core.v01.events.handler.LinkLeaveEventHandler
2018-07-29 19:12:02,122  INFO EventsManagerImpl:207     > org.matsim.api.core.v01.events.LinkLeaveEvent
2018-07-29 19:12:02,122  INFO EventsManagerImpl:148   org.matsim.contrib.decongestion.handler.IntervalBasedTolling
2018-07-29 19:12:02,122  INFO EventsManagerImpl:156 
2018-07-29 19:12:02,123  INFO EventsManagerImpl:144 adding Event-Handler: org.matsim.contrib.decongestion.handler.DelayAnalysis
2018-07-29 19:12:02,123  INFO EventsManagerImpl:148   org.matsim.api.core.v01.events.handler.LinkEnterEventHandler
2018-07-29 19:12:02,123  INFO EventsManagerImpl:207     > org.matsim.api.core.v01.events.LinkEnterEvent
2018-07-29 19:12:02,123  INFO EventsManagerImpl:148   org.matsim.api.core.v01.events.handler.LinkLeaveEventHandler
2018-07-29 19:12:02,123  INFO EventsManagerImpl:207     > org.matsim.api.core.v01.events.LinkLeaveEvent
2018-07-29 19:12:02,123  INFO EventsManagerImpl:148   org.matsim.api.core.v01.events.handler.PersonArrivalEventHandler
2018-07-29 19:12:02,123  INFO EventsManagerImpl:207     > org.matsim.api.core.v01.events.PersonArrivalEvent
2018-07-29 19:12:02,124  INFO EventsManagerImpl:156 
2018-07-29 19:12:02,124  INFO EventsManagerImpl:144 adding Event-Handler: org.matsim.contrib.decongestion.handler.DelayAnalysis
2018-07-29 19:12:02,124  INFO EventsManagerImpl:148   org.matsim.api.core.v01.events.handler.LinkEnterEventHandler
2018-07-29 19:12:02,124  INFO EventsManagerImpl:207     > org.matsim.api.core.v01.events.LinkEnterEvent
2018-07-29 19:12:02,124  INFO EventsManagerImpl:148   org.matsim.api.core.v01.events.handler.LinkLeaveEventHandler
2018-07-29 19:12:02,124  INFO EventsManagerImpl:207     > org.matsim.api.core.v01.events.LinkLeaveEvent
2018-07-29 19:12:02,125  INFO EventsManagerImpl:148   org.matsim.api.core.v01.events.handler.PersonArrivalEventHandler
2018-07-29 19:12:02,125  INFO EventsManagerImpl:207     > org.matsim.api.core.v01.events.PersonArrivalEvent
2018-07-29 19:12:02,125  INFO EventsManagerImpl:156 
2018-07-29 19:12:02,125  INFO EventsManagerImpl:144 adding Event-Handler: org.matsim.contrib.decongestion.handler.PersonVehicleTracker
2018-07-29 19:12:02,125  INFO EventsManagerImpl:148   org.matsim.api.core.v01.events.handler.PersonEntersVehicleEventHandler
2018-07-29 19:12:02,125  INFO EventsManagerImpl:207     > org.matsim.api.core.v01.events.PersonEntersVehicleEvent
2018-07-29 19:12:02,125  INFO EventsManagerImpl:156 
2018-07-29 19:12:02,125  INFO EventsManagerImpl:144 adding Event-Handler: org.matsim.contrib.decongestion.handler.PersonVehicleTracker
2018-07-29 19:12:02,126  INFO EventsManagerImpl:148   org.matsim.api.core.v01.events.handler.PersonEntersVehicleEventHandler
2018-07-29 19:12:02,126  INFO EventsManagerImpl:207     > org.matsim.api.core.v01.events.PersonEntersVehicleEvent
2018-07-29 19:12:02,126  INFO EventsManagerImpl:156 
2018-07-29 19:12:02,126  INFO Injector:81 === printInjector start ===
2018-07-29 19:12:02,127  INFO Injector:85 org.matsim.core.scoring.ScoringFunctionFactory 
2018-07-29 19:12:02,128  INFO Injector:86   --> provider: FactoryProxy{key=Key[type=org.matsim.core.scoring.ScoringFunctionFactory, annotation=[none]], provider=com.google.inject.internal.ConstructorBindingImpl$Factory@cb0755b}
2018-07-29 19:12:02,128  INFO Injector:87   --> source: femproto.run.RunMatsim4FloodEvacuation$2.install(RunMatsim4FloodEvacuation.java:175)
2018-07-29 19:12:02,128  INFO Injector:89   --> scope: Scopes.NO_SCOPE
2018-07-29 19:12:02,128  INFO Injector:92   --> target: Key[type=femproto.run.NonEvacLinkPenalizingScoringFunctionFactory, annotation=[none]]
2018-07-29 19:12:02,128  INFO Injector:94   ==full==> LinkedKeyBinding{key=Key[type=org.matsim.core.scoring.ScoringFunctionFactory, annotation=[none]], source=femproto.run.RunMatsim4FloodEvacuation$2.install(RunMatsim4FloodEvacuation.java:175), scope=Scopes.NO_SCOPE, target=Key[type=femproto.run.NonEvacLinkPenalizingScoringFunctionFactory, annotation=[none]]}
2018-07-29 19:12:02,128  INFO Injector:96 
2018-07-29 19:12:02,128  INFO Injector:85 org.matsim.core.controler.PrepareForSim 
2018-07-29 19:12:02,129  INFO Injector:86   --> provider: of(femproto.run.RunMatsim4FloodEvacuation$2$1@2f54a33d)
2018-07-29 19:12:02,129  INFO Injector:87   --> source: femproto.run.RunMatsim4FloodEvacuation$2.install(RunMatsim4FloodEvacuation.java:180)
2018-07-29 19:12:02,129  INFO Injector:89   --> scope: eager singleton
2018-07-29 19:12:02,129  INFO Injector:94   ==full==> InstanceBinding{key=Key[type=org.matsim.core.controler.PrepareForSim, annotation=[none]], source=femproto.run.RunMatsim4FloodEvacuation$2.install(RunMatsim4FloodEvacuation.java:180), instance=femproto.run.RunMatsim4FloodEvacuation$2$1@2f54a33d}
2018-07-29 19:12:02,129  INFO Injector:96 
2018-07-29 19:12:02,129  INFO Injector:85 org.matsim.core.controler.listener.ControlerListener @com.google.inject.multibindings.Element(setName=,uniqueId=64, type=MULTIBINDER, keyType=)
2018-07-29 19:12:02,130  INFO Injector:86   --> provider: FactoryProxy{key=Key[type=org.matsim.core.controler.listener.ControlerListener, annotation=@com.google.inject.multibindings.Element(setName=,uniqueId=64, type=MULTIBINDER, keyType=)], provider=com.google.inject.internal.ConstructorBindingImpl$Factory@1349883}
2018-07-29 19:12:02,130  INFO Injector:87   --> source: femproto.run.RunMatsim4FloodEvacuation$1.install(RunMatsim4FloodEvacuation.java:129)
2018-07-29 19:12:02,130  INFO Injector:89   --> scope: Scopes.NO_SCOPE
2018-07-29 19:12:02,130  INFO Injector:92   --> target: Key[type=org.matsim.contrib.analysis.kai.KaiAnalysisListener, annotation=[none]]
2018-07-29 19:12:02,130  INFO Injector:94   ==full==> LinkedKeyBinding{key=Key[type=org.matsim.core.controler.listener.ControlerListener, annotation=@com.google.inject.multibindings.Element(setName=,uniqueId=64, type=MULTIBINDER, keyType=)], source=femproto.run.RunMatsim4FloodEvacuation$1.install(RunMatsim4FloodEvacuation.java:129), scope=Scopes.NO_SCOPE, target=Key[type=org.matsim.contrib.analysis.kai.KaiAnalysisListener, annotation=[none]]}
2018-07-29 19:12:02,130  INFO Injector:96 
2018-07-29 19:12:02,130  INFO Injector:85 org.matsim.core.controler.listener.ControlerListener @com.google.inject.multibindings.Element(setName=,uniqueId=65, type=MULTIBINDER, keyType=)
2018-07-29 19:12:02,130  INFO Injector:86   --> provider: FactoryProxy{key=Key[type=org.matsim.core.controler.listener.ControlerListener, annotation=@com.google.inject.multibindings.Element(setName=,uniqueId=65, type=MULTIBINDER, keyType=)], provider=com.google.inject.internal.ConstructorBindingImpl$Factory@3ba987b8[Scopes.SINGLETON]}
2018-07-29 19:12:02,130  INFO Injector:87   --> source: femproto.run.RunMatsim4FloodEvacuation$1.install(RunMatsim4FloodEvacuation.java:130)
2018-07-29 19:12:02,131  INFO Injector:89   --> scope: Scopes.NO_SCOPE
2018-07-29 19:12:02,131  INFO Injector:92   --> target: Key[type=femproto.run.OutputEvents2TravelDiaries, annotation=[none]]
2018-07-29 19:12:02,131  INFO Injector:94   ==full==> LinkedKeyBinding{key=Key[type=org.matsim.core.controler.listener.ControlerListener, annotation=@com.google.inject.multibindings.Element(setName=,uniqueId=65, type=MULTIBINDER, keyType=)], source=femproto.run.RunMatsim4FloodEvacuation$1.install(RunMatsim4FloodEvacuation.java:130), scope=Scopes.NO_SCOPE, target=Key[type=femproto.run.OutputEvents2TravelDiaries, annotation=[none]]}
2018-07-29 19:12:02,131  INFO Injector:96 
2018-07-29 19:12:02,131  INFO Injector:85 org.matsim.core.router.RoutingModule @com.google.inject.name.Named(value=car)
2018-07-29 19:12:02,131  INFO Injector:86   --> provider: org.matsim.core.router.NetworkRoutingProvider@1018bde2
2018-07-29 19:12:02,131  INFO Injector:87   --> source: femproto.run.RunMatsim4FloodEvacuation$1.install(RunMatsim4FloodEvacuation.java:139)
2018-07-29 19:12:02,132  INFO Injector:89   --> scope: Scopes.NO_SCOPE
2018-07-29 19:12:02,132  INFO Injector:94   ==full==> ProviderInstanceBinding{key=Key[type=org.matsim.core.router.RoutingModule, annotation=@com.google.inject.name.Named(value=car)], source=femproto.run.RunMatsim4FloodEvacuation$1.install(RunMatsim4FloodEvacuation.java:139), scope=Scopes.NO_SCOPE, provider=org.matsim.core.router.NetworkRoutingProvider@1018bde2}
2018-07-29 19:12:02,132  INFO Injector:96 
2018-07-29 19:12:02,132  INFO Injector:85 org.matsim.core.router.costcalculators.TravelDisutilityFactory @com.google.inject.name.Named(value=car)
2018-07-29 19:12:02,132  INFO Injector:86   --> provider: of(femproto.run.FEMPreferEmergencyLinksTravelDisutility$Factory@2cb4893b)
2018-07-29 19:12:02,132  INFO Injector:87   --> source: femproto.run.RunMatsim4FloodEvacuation$1.install(RunMatsim4FloodEvacuation.java:158)
2018-07-29 19:12:02,132  INFO Injector:89   --> scope: eager singleton
2018-07-29 19:12:02,132  INFO Injector:94   ==full==> InstanceBinding{key=Key[type=org.matsim.core.router.costcalculators.TravelDisutilityFactory, annotation=@com.google.inject.name.Named(value=car)], source=femproto.run.RunMatsim4FloodEvacuation$1.install(RunMatsim4FloodEvacuation.java:158), instance=femproto.run.FEMPreferEmergencyLinksTravelDisutility$Factory@2cb4893b}
2018-07-29 19:12:02,132  INFO Injector:96 
2018-07-29 19:12:02,132  INFO Injector:85 org.matsim.contrib.decongestion.tollSetting.DecongestionTollSetting 
2018-07-29 19:12:02,133  INFO Injector:86   --> provider: FactoryProxy{key=Key[type=org.matsim.contrib.decongestion.tollSetting.DecongestionTollSetting, annotation=[none]], provider=com.google.inject.internal.ConstructorBindingImpl$Factory@273444fe[Scopes.SINGLETON]}
2018-07-29 19:12:02,133  INFO Injector:87   --> source: org.matsim.contrib.decongestion.DecongestionModule.install(DecongestionModule.java:60)
2018-07-29 19:12:02,133  INFO Injector:89   --> scope: Scopes.NO_SCOPE
2018-07-29 19:12:02,133  INFO Injector:92   --> target: Key[type=org.matsim.contrib.decongestion.tollSetting.DecongestionTollingPID, annotation=[none]]
2018-07-29 19:12:02,133  INFO Injector:94   ==full==> LinkedKeyBinding{key=Key[type=org.matsim.contrib.decongestion.tollSetting.DecongestionTollSetting, annotation=[none]], source=org.matsim.contrib.decongestion.DecongestionModule.install(DecongestionModule.java:60), scope=Scopes.NO_SCOPE, target=Key[type=org.matsim.contrib.decongestion.tollSetting.DecongestionTollingPID, annotation=[none]]}
2018-07-29 19:12:02,133  INFO Injector:96 
2018-07-29 19:12:02,133  INFO Injector:85 org.matsim.core.events.handler.EventHandler @com.google.inject.multibindings.Element(setName=,uniqueId=59, type=MULTIBINDER, keyType=)
2018-07-29 19:12:02,133  INFO Injector:86   --> provider: FactoryProxy{key=Key[type=org.matsim.core.events.handler.EventHandler, annotation=@com.google.inject.multibindings.Element(setName=,uniqueId=59, type=MULTIBINDER, keyType=)], provider=com.google.inject.internal.ConstructorBindingImpl$Factory@273444fe[Scopes.SINGLETON]}
2018-07-29 19:12:02,133  INFO Injector:87   --> source: org.matsim.contrib.decongestion.DecongestionModule.install(DecongestionModule.java:61)
2018-07-29 19:12:02,134  INFO Injector:89   --> scope: Scopes.NO_SCOPE
2018-07-29 19:12:02,134  INFO Injector:92   --> target: Key[type=org.matsim.contrib.decongestion.tollSetting.DecongestionTollingPID, annotation=[none]]
2018-07-29 19:12:02,134  INFO Injector:94   ==full==> LinkedKeyBinding{key=Key[type=org.matsim.core.events.handler.EventHandler, annotation=@com.google.inject.multibindings.Element(setName=,uniqueId=59, type=MULTIBINDER, keyType=)], source=org.matsim.contrib.decongestion.DecongestionModule.install(DecongestionModule.java:61), scope=Scopes.NO_SCOPE, target=Key[type=org.matsim.contrib.decongestion.tollSetting.DecongestionTollingPID, annotation=[none]]}
2018-07-29 19:12:02,134  INFO Injector:96 
2018-07-29 19:12:02,134  INFO Injector:85 org.matsim.contrib.decongestion.handler.IntervalBasedTolling 
2018-07-29 19:12:02,134  INFO Injector:86   --> provider: FactoryProxy{key=Key[type=org.matsim.contrib.decongestion.handler.IntervalBasedTolling, annotation=[none]], provider=com.google.inject.internal.ConstructorBindingImpl$Factory@cecf639[Scopes.SINGLETON]}
2018-07-29 19:12:02,134  INFO Injector:87   --> source: org.matsim.contrib.decongestion.DecongestionModule.install(DecongestionModule.java:79)
2018-07-29 19:12:02,134  INFO Injector:89   --> scope: Scopes.NO_SCOPE
2018-07-29 19:12:02,134  INFO Injector:92   --> target: Key[type=org.matsim.contrib.decongestion.handler.IntervalBasedTollingAll, annotation=[none]]
2018-07-29 19:12:02,134  INFO Injector:94   ==full==> LinkedKeyBinding{key=Key[type=org.matsim.contrib.decongestion.handler.IntervalBasedTolling, annotation=[none]], source=org.matsim.contrib.decongestion.DecongestionModule.install(DecongestionModule.java:79), scope=Scopes.NO_SCOPE, target=Key[type=org.matsim.contrib.decongestion.handler.IntervalBasedTollingAll, annotation=[none]]}
2018-07-29 19:12:02,135  INFO Injector:96 
2018-07-29 19:12:02,135  INFO Injector:85 org.matsim.core.events.handler.EventHandler @com.google.inject.multibindings.Element(setName=,uniqueId=60, type=MULTIBINDER, keyType=)
2018-07-29 19:12:02,135  INFO Injector:86   --> provider: FactoryProxy{key=Key[type=org.matsim.core.events.handler.EventHandler, annotation=@com.google.inject.multibindings.Element(setName=,uniqueId=60, type=MULTIBINDER, keyType=)], provider=com.google.inject.internal.ConstructorBindingImpl$Factory@cecf639[Scopes.SINGLETON]}
2018-07-29 19:12:02,135  INFO Injector:87   --> source: org.matsim.contrib.decongestion.DecongestionModule.install(DecongestionModule.java:80)
2018-07-29 19:12:02,135  INFO Injector:89   --> scope: Scopes.NO_SCOPE
2018-07-29 19:12:02,135  INFO Injector:92   --> target: Key[type=org.matsim.contrib.decongestion.handler.IntervalBasedTollingAll, annotation=[none]]
2018-07-29 19:12:02,135  INFO Injector:94   ==full==> LinkedKeyBinding{key=Key[type=org.matsim.core.events.handler.EventHandler, annotation=@com.google.inject.multibindings.Element(setName=,uniqueId=60, type=MULTIBINDER, keyType=)], source=org.matsim.contrib.decongestion.DecongestionModule.install(DecongestionModule.java:80), scope=Scopes.NO_SCOPE, target=Key[type=org.matsim.contrib.decongestion.handler.IntervalBasedTollingAll, annotation=[none]]}
2018-07-29 19:12:02,135  INFO Injector:96 
2018-07-29 19:12:02,135  INFO Injector:85 org.matsim.core.events.handler.EventHandler @com.google.inject.multibindings.Element(setName=,uniqueId=61, type=MULTIBINDER, keyType=)
2018-07-29 19:12:02,135  INFO Injector:86   --> provider: FactoryProxy{key=Key[type=org.matsim.core.events.handler.EventHandler, annotation=@com.google.inject.multibindings.Element(setName=,uniqueId=61, type=MULTIBINDER, keyType=)], provider=com.google.inject.internal.ConstructorBindingImpl$Factory@183ec003[Scopes.SINGLETON]}
2018-07-29 19:12:02,136  INFO Injector:87   --> source: org.matsim.contrib.decongestion.DecongestionModule.install(DecongestionModule.java:83)
2018-07-29 19:12:02,136  INFO Injector:89   --> scope: Scopes.NO_SCOPE
2018-07-29 19:12:02,136  INFO Injector:92   --> target: Key[type=org.matsim.contrib.decongestion.handler.DelayAnalysis, annotation=[none]]
2018-07-29 19:12:02,136  INFO Injector:94   ==full==> LinkedKeyBinding{key=Key[type=org.matsim.core.events.handler.EventHandler, annotation=@com.google.inject.multibindings.Element(setName=,uniqueId=61, type=MULTIBINDER, keyType=)], source=org.matsim.contrib.decongestion.DecongestionModule.install(DecongestionModule.java:83), scope=Scopes.NO_SCOPE, target=Key[type=org.matsim.contrib.decongestion.handler.DelayAnalysis, annotation=[none]]}
2018-07-29 19:12:02,136  INFO Injector:96 
2018-07-29 19:12:02,136  INFO Injector:85 org.matsim.core.events.handler.EventHandler @com.google.inject.multibindings.Element(setName=,uniqueId=62, type=MULTIBINDER, keyType=)
2018-07-29 19:12:02,136  INFO Injector:86   --> provider: FactoryProxy{key=Key[type=org.matsim.core.events.handler.EventHandler, annotation=@com.google.inject.multibindings.Element(setName=,uniqueId=62, type=MULTIBINDER, keyType=)], provider=com.google.inject.internal.ConstructorBindingImpl$Factory@24569dba}[Scopes.SINGLETON]
2018-07-29 19:12:02,136  INFO Injector:87   --> source: org.matsim.contrib.decongestion.DecongestionModule.install(DecongestionModule.java:85)
2018-07-29 19:12:02,136  INFO Injector:89   --> scope: eager singleton
2018-07-29 19:12:02,136  INFO Injector:92   --> target: Key[type=org.matsim.contrib.decongestion.handler.PersonVehicleTracker, annotation=[none]]
2018-07-29 19:12:02,137  INFO Injector:94   ==full==> LinkedKeyBinding{key=Key[type=org.matsim.core.events.handler.EventHandler, annotation=@com.google.inject.multibindings.Element(setName=,uniqueId=62, type=MULTIBINDER, keyType=)], source=org.matsim.contrib.decongestion.DecongestionModule.install(DecongestionModule.java:85), scope=eager singleton, target=Key[type=org.matsim.contrib.decongestion.handler.PersonVehicleTracker, annotation=[none]]}
2018-07-29 19:12:02,137  INFO Injector:96 
2018-07-29 19:12:02,137  INFO Injector:85 org.matsim.core.controler.listener.ControlerListener @com.google.inject.multibindings.Element(setName=,uniqueId=63, type=MULTIBINDER, keyType=)
2018-07-29 19:12:02,137  INFO Injector:86   --> provider: FactoryProxy{key=Key[type=org.matsim.core.controler.listener.ControlerListener, annotation=@com.google.inject.multibindings.Element(setName=,uniqueId=63, type=MULTIBINDER, keyType=)], provider=com.google.inject.internal.ConstructorBindingImpl$Factory@247310d0}
2018-07-29 19:12:02,137  INFO Injector:87   --> source: org.matsim.contrib.decongestion.DecongestionModule.install(DecongestionModule.java:87)
2018-07-29 19:12:02,137  INFO Injector:89   --> scope: Scopes.NO_SCOPE
2018-07-29 19:12:02,137  INFO Injector:92   --> target: Key[type=org.matsim.contrib.decongestion.DecongestionControlerListener, annotation=[none]]
2018-07-29 19:12:02,137  INFO Injector:94   ==full==> LinkedKeyBinding{key=Key[type=org.matsim.core.controler.listener.ControlerListener, annotation=@com.google.inject.multibindings.Element(setName=,uniqueId=63, type=MULTIBINDER, keyType=)], source=org.matsim.contrib.decongestion.DecongestionModule.install(DecongestionModule.java:87), scope=Scopes.NO_SCOPE, target=Key[type=org.matsim.contrib.decongestion.DecongestionControlerListener, annotation=[none]]}
2018-07-29 19:12:02,138  INFO Injector:96 
2018-07-29 19:12:02,138  INFO Injector:85 org.matsim.api.core.v01.Scenario 
2018-07-29 19:12:02,138  INFO Injector:86   --> provider: of(org.matsim.core.scenario.MutableScenario@609e8838)
2018-07-29 19:12:02,138  INFO Injector:87   --> source: org.matsim.core.scenario.ScenarioByInstanceModule.install(ScenarioByInstanceModule.java:31)
2018-07-29 19:12:02,138  INFO Injector:89   --> scope: eager singleton
2018-07-29 19:12:02,138  INFO Injector:94   ==full==> InstanceBinding{key=Key[type=org.matsim.api.core.v01.Scenario, annotation=[none]], source=org.matsim.core.scenario.ScenarioByInstanceModule.install(ScenarioByInstanceModule.java:31), instance=org.matsim.core.scenario.MutableScenario@609e8838}
2018-07-29 19:12:02,138  INFO Injector:96 
2018-07-29 19:12:02,138  INFO Injector:85 org.matsim.api.core.v01.network.Network 
2018-07-29 19:12:02,141  INFO Injector:86   --> provider: @Provides org.matsim.core.scenario.ScenarioByInstanceModule.provideNetwork(ScenarioByInstanceModule.java:39)
2018-07-29 19:12:02,141  INFO Injector:87   --> source: org.matsim.api.core.v01.network.Network org.matsim.core.scenario.ScenarioByInstanceModule.provideNetwork(org.matsim.api.core.v01.Scenario)
2018-07-29 19:12:02,141  INFO Injector:89   --> scope: Scopes.NO_SCOPE
2018-07-29 19:12:02,141  INFO Injector:94   ==full==> ProviderInstanceBinding{key=Key[type=org.matsim.api.core.v01.network.Network, annotation=[none]], source=org.matsim.api.core.v01.network.Network org.matsim.core.scenario.ScenarioByInstanceModule.provideNetwork(org.matsim.api.core.v01.Scenario), scope=Scopes.NO_SCOPE, provider=@Provides org.matsim.core.scenario.ScenarioByInstanceModule.provideNetwork(ScenarioByInstanceModule.java:39)}
2018-07-29 19:12:02,141  INFO Injector:96 
2018-07-29 19:12:02,142  INFO Injector:85 org.matsim.api.core.v01.population.Population 
2018-07-29 19:12:02,142  INFO Injector:86   --> provider: @Provides org.matsim.core.scenario.ScenarioByInstanceModule.providePopulation(ScenarioByInstanceModule.java:43)
2018-07-29 19:12:02,142  INFO Injector:87   --> source: org.matsim.api.core.v01.population.Population org.matsim.core.scenario.ScenarioByInstanceModule.providePopulation(org.matsim.api.core.v01.Scenario)
2018-07-29 19:12:02,142  INFO Injector:89   --> scope: Scopes.NO_SCOPE
2018-07-29 19:12:02,142  INFO Injector:94   ==full==> ProviderInstanceBinding{key=Key[type=org.matsim.api.core.v01.population.Population, annotation=[none]], source=org.matsim.api.core.v01.population.Population org.matsim.core.scenario.ScenarioByInstanceModule.providePopulation(org.matsim.api.core.v01.Scenario), scope=Scopes.NO_SCOPE, provider=@Provides org.matsim.core.scenario.ScenarioByInstanceModule.providePopulation(ScenarioByInstanceModule.java:43)}
2018-07-29 19:12:02,142  INFO Injector:96 
2018-07-29 19:12:02,142  INFO Injector:85 org.matsim.api.core.v01.population.PopulationFactory 
2018-07-29 19:12:02,142  INFO Injector:86   --> provider: @Provides org.matsim.core.scenario.ScenarioByInstanceModule.providePopulationFactory(ScenarioByInstanceModule.java:47)
2018-07-29 19:12:02,142  INFO Injector:87   --> source: org.matsim.api.core.v01.population.PopulationFactory org.matsim.core.scenario.ScenarioByInstanceModule.providePopulationFactory(org.matsim.api.core.v01.population.Population)
2018-07-29 19:12:02,142  INFO Injector:89   --> scope: Scopes.NO_SCOPE
2018-07-29 19:12:02,142  INFO Injector:94   ==full==> ProviderInstanceBinding{key=Key[type=org.matsim.api.core.v01.population.PopulationFactory, annotation=[none]], source=org.matsim.api.core.v01.population.PopulationFactory org.matsim.core.scenario.ScenarioByInstanceModule.providePopulationFactory(org.matsim.api.core.v01.population.Population), scope=Scopes.NO_SCOPE, provider=@Provides org.matsim.core.scenario.ScenarioByInstanceModule.providePopulationFactory(ScenarioByInstanceModule.java:47)}
2018-07-29 19:12:02,143  INFO Injector:96 
2018-07-29 19:12:02,143  INFO Injector:85 org.matsim.facilities.ActivityFacilities 
2018-07-29 19:12:02,143  INFO Injector:86   --> provider: @Provides org.matsim.core.scenario.ScenarioByInstanceModule.provideActivityFacilities(ScenarioByInstanceModule.java:51)
2018-07-29 19:12:02,143  INFO Injector:87   --> source: org.matsim.facilities.ActivityFacilities org.matsim.core.scenario.ScenarioByInstanceModule.provideActivityFacilities(org.matsim.api.core.v01.Scenario)
2018-07-29 19:12:02,143  INFO Injector:89   --> scope: Scopes.NO_SCOPE
2018-07-29 19:12:02,143  INFO Injector:94   ==full==> ProviderInstanceBinding{key=Key[type=org.matsim.facilities.ActivityFacilities, annotation=[none]], source=org.matsim.facilities.ActivityFacilities org.matsim.core.scenario.ScenarioByInstanceModule.provideActivityFacilities(org.matsim.api.core.v01.Scenario), scope=Scopes.NO_SCOPE, provider=@Provides org.matsim.core.scenario.ScenarioByInstanceModule.provideActivityFacilities(ScenarioByInstanceModule.java:51)}
2018-07-29 19:12:02,143  INFO Injector:96 
2018-07-29 19:12:02,143  INFO Injector:85 org.matsim.households.Households 
2018-07-29 19:12:02,143  INFO Injector:86   --> provider: @Provides org.matsim.core.scenario.ScenarioByInstanceModule.provideHouseholds(ScenarioByInstanceModule.java:56)
2018-07-29 19:12:02,143  INFO Injector:87   --> source: org.matsim.households.Households org.matsim.core.scenario.ScenarioByInstanceModule.provideHouseholds(org.matsim.api.core.v01.Scenario)
2018-07-29 19:12:02,143  INFO Injector:89   --> scope: Scopes.NO_SCOPE
2018-07-29 19:12:02,143  INFO Injector:94   ==full==> ProviderInstanceBinding{key=Key[type=org.matsim.households.Households, annotation=[none]], source=org.matsim.households.Households org.matsim.core.scenario.ScenarioByInstanceModule.provideHouseholds(org.matsim.api.core.v01.Scenario), scope=Scopes.NO_SCOPE, provider=@Provides org.matsim.core.scenario.ScenarioByInstanceModule.provideHouseholds(ScenarioByInstanceModule.java:56)}
2018-07-29 19:12:02,144  INFO Injector:96 
2018-07-29 19:12:02,144  INFO Injector:85 org.matsim.vehicles.Vehicles 
2018-07-29 19:12:02,144  INFO Injector:86   --> provider: @Provides org.matsim.core.scenario.ScenarioByInstanceModule.provideVehicles(ScenarioByInstanceModule.java:61)
2018-07-29 19:12:02,144  INFO Injector:87   --> source: org.matsim.vehicles.Vehicles org.matsim.core.scenario.ScenarioByInstanceModule.provideVehicles(org.matsim.api.core.v01.Scenario)
2018-07-29 19:12:02,144  INFO Injector:89   --> scope: Scopes.NO_SCOPE
2018-07-29 19:12:02,144  INFO Injector:94   ==full==> ProviderInstanceBinding{key=Key[type=org.matsim.vehicles.Vehicles, annotation=[none]], source=org.matsim.vehicles.Vehicles org.matsim.core.scenario.ScenarioByInstanceModule.provideVehicles(org.matsim.api.core.v01.Scenario), scope=Scopes.NO_SCOPE, provider=@Provides org.matsim.core.scenario.ScenarioByInstanceModule.provideVehicles(ScenarioByInstanceModule.java:61)}
2018-07-29 19:12:02,144  INFO Injector:96 
2018-07-29 19:12:02,144  INFO Injector:85 org.matsim.lanes.Lanes 
2018-07-29 19:12:02,144  INFO Injector:86   --> provider: @Provides org.matsim.core.scenario.ScenarioByInstanceModule.provideLanes(ScenarioByInstanceModule.java:66)
2018-07-29 19:12:02,144  INFO Injector:87   --> source: org.matsim.lanes.Lanes org.matsim.core.scenario.ScenarioByInstanceModule.provideLanes(org.matsim.api.core.v01.Scenario)
2018-07-29 19:12:02,144  INFO Injector:89   --> scope: Scopes.NO_SCOPE
2018-07-29 19:12:02,145  INFO Injector:94   ==full==> ProviderInstanceBinding{key=Key[type=org.matsim.lanes.Lanes, annotation=[none]], source=org.matsim.lanes.Lanes org.matsim.core.scenario.ScenarioByInstanceModule.provideLanes(org.matsim.api.core.v01.Scenario), scope=Scopes.NO_SCOPE, provider=@Provides org.matsim.core.scenario.ScenarioByInstanceModule.provideLanes(ScenarioByInstanceModule.java:66)}
2018-07-29 19:12:02,145  INFO Injector:96 
2018-07-29 19:12:02,145  INFO Injector:85 org.matsim.core.controler.ControlerI 
2018-07-29 19:12:02,145  INFO Injector:86   --> provider: FactoryProxy{key=Key[type=org.matsim.core.controler.ControlerI, annotation=[none]], provider=com.google.inject.internal.ConstructorBindingImpl$Factory@710636b0}[Scopes.SINGLETON]
2018-07-29 19:12:02,145  INFO Injector:87   --> source: org.matsim.core.controler.NewControlerModule.install(NewControlerModule.java:8)
2018-07-29 19:12:02,145  INFO Injector:89   --> scope: eager singleton
2018-07-29 19:12:02,145  INFO Injector:92   --> target: Key[type=org.matsim.core.controler.NewControler, annotation=[none]]
2018-07-29 19:12:02,145  INFO Injector:94   ==full==> LinkedKeyBinding{key=Key[type=org.matsim.core.controler.ControlerI, annotation=[none]], source=org.matsim.core.controler.NewControlerModule.install(NewControlerModule.java:8), scope=eager singleton, target=Key[type=org.matsim.core.controler.NewControler, annotation=[none]]}
2018-07-29 19:12:02,145  INFO Injector:96 
2018-07-29 19:12:02,145  INFO Injector:85 org.matsim.core.controler.ControlerListenerManager 
2018-07-29 19:12:02,146  INFO Injector:86   --> provider: FactoryProxy{key=Key[type=org.matsim.core.controler.ControlerListenerManager, annotation=[none]], provider=com.google.inject.internal.ConstructorBindingImpl$Factory@239a307b[Scopes.SINGLETON]}
2018-07-29 19:12:02,146  INFO Injector:87   --> source: org.matsim.core.controler.NewControlerModule.install(NewControlerModule.java:10)
2018-07-29 19:12:02,146  INFO Injector:89   --> scope: Scopes.NO_SCOPE
2018-07-29 19:12:02,146  INFO Injector:92   --> target: Key[type=org.matsim.core.controler.ControlerListenerManagerImpl, annotation=[none]]
2018-07-29 19:12:02,146  INFO Injector:94   ==full==> LinkedKeyBinding{key=Key[type=org.matsim.core.controler.ControlerListenerManager, annotation=[none]], source=org.matsim.core.controler.NewControlerModule.install(NewControlerModule.java:10), scope=Scopes.NO_SCOPE, target=Key[type=org.matsim.core.controler.ControlerListenerManagerImpl, annotation=[none]]}
2018-07-29 19:12:02,146  INFO Injector:96 
2018-07-29 19:12:02,146  INFO Injector:85 org.matsim.core.controler.TerminationCriterion 
2018-07-29 19:12:02,146  INFO Injector:86   --> provider: FactoryProxy{key=Key[type=org.matsim.core.controler.TerminationCriterion, annotation=[none]], provider=com.google.inject.internal.ConstructorBindingImpl$Factory@17bffc17}
2018-07-29 19:12:02,146  INFO Injector:87   --> source: org.matsim.core.controler.NewControlerModule.install(NewControlerModule.java:14)
2018-07-29 19:12:02,147  INFO Injector:89   --> scope: Scopes.NO_SCOPE
2018-07-29 19:12:02,147  INFO Injector:92   --> target: Key[type=org.matsim.core.controler.TerminateAtFixedIterationNumber, annotation=[none]]
2018-07-29 19:12:02,147  INFO Injector:94   ==full==> LinkedKeyBinding{key=Key[type=org.matsim.core.controler.TerminationCriterion, annotation=[none]], source=org.matsim.core.controler.NewControlerModule.install(NewControlerModule.java:14), scope=Scopes.NO_SCOPE, target=Key[type=org.matsim.core.controler.TerminateAtFixedIterationNumber, annotation=[none]]}
2018-07-29 19:12:02,147  INFO Injector:96 
2018-07-29 19:12:02,147  INFO Injector:85 org.matsim.core.controler.MatsimServices 
2018-07-29 19:12:02,147  INFO Injector:86   --> provider: FactoryProxy{key=Key[type=org.matsim.core.controler.MatsimServices, annotation=[none]], provider=com.google.inject.internal.ConstructorBindingImpl$Factory@1807e3f6}
2018-07-29 19:12:02,147  INFO Injector:87   --> source: org.matsim.core.controler.NewControlerModule.install(NewControlerModule.java:15)
2018-07-29 19:12:02,147  INFO Injector:89   --> scope: Scopes.NO_SCOPE
2018-07-29 19:12:02,147  INFO Injector:92   --> target: Key[type=org.matsim.core.controler.MatsimServicesImpl, annotation=[none]]
2018-07-29 19:12:02,147  INFO Injector:94   ==full==> LinkedKeyBinding{key=Key[type=org.matsim.core.controler.MatsimServices, annotation=[none]], source=org.matsim.core.controler.NewControlerModule.install(NewControlerModule.java:15), scope=Scopes.NO_SCOPE, target=Key[type=org.matsim.core.controler.MatsimServicesImpl, annotation=[none]]}
2018-07-29 19:12:02,148  INFO Injector:96 
2018-07-29 19:12:02,148  INFO Injector:85 org.matsim.core.controler.PrepareForMobsim 
2018-07-29 19:12:02,148  INFO Injector:86   --> provider: FactoryProxy{key=Key[type=org.matsim.core.controler.PrepareForMobsim, annotation=[none]], provider=com.google.inject.internal.ConstructorBindingImpl$Factory@38467116}
2018-07-29 19:12:02,148  INFO Injector:87   --> source: org.matsim.core.controler.NewControlerModule.install(NewControlerModule.java:18)
2018-07-29 19:12:02,148  INFO Injector:89   --> scope: Scopes.NO_SCOPE
2018-07-29 19:12:02,148  INFO Injector:92   --> target: Key[type=org.matsim.core.controler.PrepareForMobsimImpl, annotation=[none]]
2018-07-29 19:12:02,148  INFO Injector:94   ==full==> LinkedKeyBinding{key=Key[type=org.matsim.core.controler.PrepareForMobsim, annotation=[none]], source=org.matsim.core.controler.NewControlerModule.install(NewControlerModule.java:18), scope=Scopes.NO_SCOPE, target=Key[type=org.matsim.core.controler.PrepareForMobsimImpl, annotation=[none]]}
2018-07-29 19:12:02,148  INFO Injector:96 
2018-07-29 19:12:02,149  INFO Injector:85 org.matsim.core.controler.corelisteners.PlansScoring 
2018-07-29 19:12:02,149  INFO Injector:86   --> provider: FactoryProxy{key=Key[type=org.matsim.core.controler.corelisteners.PlansScoring, annotation=[none]], provider=com.google.inject.internal.ConstructorBindingImpl$Factory@68c9d179[Scopes.SINGLETON]}
2018-07-29 19:12:02,149  INFO Injector:87   --> source: org.matsim.core.scoring.PlansScoringModule.install(PlansScoringModule.java:11)
2018-07-29 19:12:02,149  INFO Injector:89   --> scope: Scopes.NO_SCOPE
2018-07-29 19:12:02,149  INFO Injector:92   --> target: Key[type=org.matsim.core.scoring.PlansScoringImpl, annotation=[none]]
2018-07-29 19:12:02,149  INFO Injector:94   ==full==> LinkedKeyBinding{key=Key[type=org.matsim.core.controler.corelisteners.PlansScoring, annotation=[none]], source=org.matsim.core.scoring.PlansScoringModule.install(PlansScoringModule.java:11), scope=Scopes.NO_SCOPE, target=Key[type=org.matsim.core.scoring.PlansScoringImpl, annotation=[none]]}
2018-07-29 19:12:02,149  INFO Injector:96 
2018-07-29 19:12:02,149  INFO Injector:85 org.matsim.core.controler.corelisteners.PlansReplanning 
2018-07-29 19:12:02,150  INFO Injector:86   --> provider: FactoryProxy{key=Key[type=org.matsim.core.controler.corelisteners.PlansReplanning, annotation=[none]], provider=com.google.inject.internal.ConstructorBindingImpl$Factory@6a8658ff[Scopes.SINGLETON]}
2018-07-29 19:12:02,150  INFO Injector:87   --> source: org.matsim.core.controler.corelisteners.ControlerDefaultCoreListenersModule.install(ControlerDefaultCoreListenersModule.java:38)
2018-07-29 19:12:02,150  INFO Injector:89   --> scope: Scopes.NO_SCOPE
2018-07-29 19:12:02,150  INFO Injector:92   --> target: Key[type=org.matsim.core.controler.corelisteners.PlansReplanningImpl, annotation=[none]]
2018-07-29 19:12:02,150  INFO Injector:94   ==full==> LinkedKeyBinding{key=Key[type=org.matsim.core.controler.corelisteners.PlansReplanning, annotation=[none]], source=org.matsim.core.controler.corelisteners.ControlerDefaultCoreListenersModule.install(ControlerDefaultCoreListenersModule.java:38), scope=Scopes.NO_SCOPE, target=Key[type=org.matsim.core.controler.corelisteners.PlansReplanningImpl, annotation=[none]]}
2018-07-29 19:12:02,150  INFO Injector:96 
2018-07-29 19:12:02,150  INFO Injector:85 org.matsim.core.controler.corelisteners.PlansDumping 
2018-07-29 19:12:02,151  INFO Injector:86   --> provider: FactoryProxy{key=Key[type=org.matsim.core.controler.corelisteners.PlansDumping, annotation=[none]], provider=com.google.inject.internal.ConstructorBindingImpl$Factory@7e990ed7[Scopes.SINGLETON]}
2018-07-29 19:12:02,151  INFO Injector:87   --> source: org.matsim.core.controler.corelisteners.ControlerDefaultCoreListenersModule.install(ControlerDefaultCoreListenersModule.java:39)
2018-07-29 19:12:02,151  INFO Injector:89   --> scope: Scopes.NO_SCOPE
2018-07-29 19:12:02,151  INFO Injector:92   --> target: Key[type=org.matsim.core.controler.corelisteners.PlansDumpingImpl, annotation=[none]]
2018-07-29 19:12:02,151  INFO Injector:94   ==full==> LinkedKeyBinding{key=Key[type=org.matsim.core.controler.corelisteners.PlansDumping, annotation=[none]], source=org.matsim.core.controler.corelisteners.ControlerDefaultCoreListenersModule.install(ControlerDefaultCoreListenersModule.java:39), scope=Scopes.NO_SCOPE, target=Key[type=org.matsim.core.controler.corelisteners.PlansDumpingImpl, annotation=[none]]}
2018-07-29 19:12:02,151  INFO Injector:96 
2018-07-29 19:12:02,152  INFO Injector:85 org.matsim.core.controler.corelisteners.EventsHandling 
2018-07-29 19:12:02,152  INFO Injector:86   --> provider: FactoryProxy{key=Key[type=org.matsim.core.controler.corelisteners.EventsHandling, annotation=[none]], provider=com.google.inject.internal.ConstructorBindingImpl$Factory@79207381[Scopes.SINGLETON]}
2018-07-29 19:12:02,152  INFO Injector:87   --> source: org.matsim.core.controler.corelisteners.ControlerDefaultCoreListenersModule.install(ControlerDefaultCoreListenersModule.java:40)
2018-07-29 19:12:02,152  INFO Injector:89   --> scope: Scopes.NO_SCOPE
2018-07-29 19:12:02,152  INFO Injector:92   --> target: Key[type=org.matsim.core.controler.corelisteners.EventsHandlingImpl, annotation=[none]]
2018-07-29 19:12:02,152  INFO Injector:94   ==full==> LinkedKeyBinding{key=Key[type=org.matsim.core.controler.corelisteners.EventsHandling, annotation=[none]], source=org.matsim.core.controler.corelisteners.ControlerDefaultCoreListenersModule.install(ControlerDefaultCoreListenersModule.java:40), scope=Scopes.NO_SCOPE, target=Key[type=org.matsim.core.controler.corelisteners.EventsHandlingImpl, annotation=[none]]}
2018-07-29 19:12:02,152  INFO Injector:96 
2018-07-29 19:12:02,153  INFO Injector:85 org.matsim.core.controler.corelisteners.DumpDataAtEnd 
2018-07-29 19:12:02,153  INFO Injector:86   --> provider: FactoryProxy{key=Key[type=org.matsim.core.controler.corelisteners.DumpDataAtEnd, annotation=[none]], provider=com.google.inject.internal.ConstructorBindingImpl$Factory@16150369[Scopes.SINGLETON]}
2018-07-29 19:12:02,153  INFO Injector:87   --> source: org.matsim.core.controler.corelisteners.ControlerDefaultCoreListenersModule.install(ControlerDefaultCoreListenersModule.java:41)
2018-07-29 19:12:02,153  INFO Injector:89   --> scope: Scopes.NO_SCOPE
2018-07-29 19:12:02,153  INFO Injector:92   --> target: Key[type=org.matsim.core.controler.corelisteners.DumpDataAtEndImpl, annotation=[none]]
2018-07-29 19:12:02,153  INFO Injector:94   ==full==> LinkedKeyBinding{key=Key[type=org.matsim.core.controler.corelisteners.DumpDataAtEnd, annotation=[none]], source=org.matsim.core.controler.corelisteners.ControlerDefaultCoreListenersModule.install(ControlerDefaultCoreListenersModule.java:41), scope=Scopes.NO_SCOPE, target=Key[type=org.matsim.core.controler.corelisteners.DumpDataAtEndImpl, annotation=[none]]}
2018-07-29 19:12:02,153  INFO Injector:96 
2018-07-29 19:12:02,153  INFO Injector:85 org.matsim.core.api.experimental.events.EventsManager 
2018-07-29 19:12:02,154  INFO Injector:86   --> provider: FactoryProxy{key=Key[type=org.matsim.core.api.experimental.events.EventsManager, annotation=[none]], provider=com.google.inject.internal.ConstructorBindingImpl$Factory@821330f}[Scopes.SINGLETON]
2018-07-29 19:12:02,154  INFO Injector:87   --> source: org.matsim.core.events.EventsManagerModule.install(EventsManagerModule.java:23)
2018-07-29 19:12:02,154  INFO Injector:89   --> scope: eager singleton
2018-07-29 19:12:02,154  INFO Injector:92   --> target: Key[type=org.matsim.core.events.SimStepParallelEventsManagerImpl, annotation=[none]]
2018-07-29 19:12:02,154  INFO Injector:94   ==full==> LinkedKeyBinding{key=Key[type=org.matsim.core.api.experimental.events.EventsManager, annotation=[none]], source=org.matsim.core.events.EventsManagerModule.install(EventsManagerModule.java:23), scope=eager singleton, target=Key[type=org.matsim.core.events.SimStepParallelEventsManagerImpl, annotation=[none]]}
2018-07-29 19:12:02,154  INFO Injector:96 
2018-07-29 19:12:02,154  INFO Injector:85 org.matsim.core.mobsim.qsim.components.QSimComponents 
2018-07-29 19:12:02,155  INFO Injector:86   --> provider: @Provides org.matsim.core.mobsim.qsim.components.QSimComponentsModule.provideDefaultQSimComponentsConfiguration(QSimComponentsModule.java:13)[Scopes.SINGLETON]
2018-07-29 19:12:02,155  INFO Injector:87   --> source: public org.matsim.core.mobsim.qsim.components.QSimComponents org.matsim.core.mobsim.qsim.components.QSimComponentsModule.provideDefaultQSimComponentsConfiguration(org.matsim.core.config.Config)
2018-07-29 19:12:02,155  INFO Injector:89   --> scope: Scopes.SINGLETON
2018-07-29 19:12:02,155  INFO Injector:94   ==full==> ProviderInstanceBinding{key=Key[type=org.matsim.core.mobsim.qsim.components.QSimComponents, annotation=[none]], source=public org.matsim.core.mobsim.qsim.components.QSimComponents org.matsim.core.mobsim.qsim.components.QSimComponentsModule.provideDefaultQSimComponentsConfiguration(org.matsim.core.config.Config), scope=Scopes.SINGLETON, provider=@Provides org.matsim.core.mobsim.qsim.components.QSimComponentsModule.provideDefaultQSimComponentsConfiguration(QSimComponentsModule.java:13)}
2018-07-29 19:12:02,155  INFO Injector:96 
2018-07-29 19:12:02,156  INFO Injector:85 org.matsim.core.mobsim.framework.Mobsim 
2018-07-29 19:12:02,156  INFO Injector:86   --> provider: Key[type=org.matsim.core.mobsim.qsim.QSimProvider, annotation=[none]]
2018-07-29 19:12:02,156  INFO Injector:87   --> source: org.matsim.core.mobsim.qsim.QSimModule.configure(QSimModule.java:31)
2018-07-29 19:12:02,156  INFO Injector:89   --> scope: Scopes.NO_SCOPE
2018-07-29 19:12:02,156  INFO Injector:94   ==full==> ProviderKeyBinding{key=Key[type=org.matsim.core.mobsim.framework.Mobsim, annotation=[none]], source=org.matsim.core.mobsim.qsim.QSimModule.configure(QSimModule.java:31), scope=Scopes.NO_SCOPE, provider=Key[type=org.matsim.core.mobsim.qsim.QSimProvider, annotation=[none]]}
2018-07-29 19:12:02,156  INFO Injector:96 
2018-07-29 19:12:02,157  INFO Injector:85 org.matsim.core.mobsim.qsim.qnetsimengine.QNetworkFactory 
2018-07-29 19:12:02,157  INFO Injector:86   --> provider: FactoryProxy{key=Key[type=org.matsim.core.mobsim.qsim.qnetsimengine.QNetworkFactory, annotation=[none]], provider=com.google.inject.internal.ConstructorBindingImpl$Factory@126253fd}
2018-07-29 19:12:02,157  INFO Injector:87   --> source: org.matsim.core.mobsim.qsim.QSimModule.configure(QSimModule.java:35)
2018-07-29 19:12:02,157  INFO Injector:89   --> scope: Scopes.NO_SCOPE
2018-07-29 19:12:02,157  INFO Injector:92   --> target: Key[type=org.matsim.core.mobsim.qsim.qnetsimengine.DefaultQNetworkFactory, annotation=[none]]
2018-07-29 19:12:02,157  INFO Injector:94   ==full==> LinkedKeyBinding{key=Key[type=org.matsim.core.mobsim.qsim.qnetsimengine.QNetworkFactory, annotation=[none]], source=org.matsim.core.mobsim.qsim.QSimModule.configure(QSimModule.java:35), scope=Scopes.NO_SCOPE, target=Key[type=org.matsim.core.mobsim.qsim.qnetsimengine.DefaultQNetworkFactory, annotation=[none]]}
2018-07-29 19:12:02,158  INFO Injector:96 
2018-07-29 19:12:02,158  INFO Injector:85 org.matsim.core.router.util.TravelTime @com.google.inject.name.Named(value=car)
2018-07-29 19:12:02,158  INFO Injector:86   --> provider: Key[type=org.matsim.core.trafficmonitoring.ObservedLinkTravelTimes, annotation=[none]]
2018-07-29 19:12:02,158  INFO Injector:87   --> source: org.matsim.core.trafficmonitoring.TravelTimeCalculatorModule.install(TravelTimeCalculatorModule.java:81)
2018-07-29 19:12:02,158  INFO Injector:89   --> scope: Scopes.NO_SCOPE
2018-07-29 19:12:02,158  INFO Injector:94   ==full==> ProviderKeyBinding{key=Key[type=org.matsim.core.router.util.TravelTime, annotation=@com.google.inject.name.Named(value=car)], source=org.matsim.core.trafficmonitoring.TravelTimeCalculatorModule.install(TravelTimeCalculatorModule.java:81), scope=Scopes.NO_SCOPE, provider=Key[type=org.matsim.core.trafficmonitoring.ObservedLinkTravelTimes, annotation=[none]]}
2018-07-29 19:12:02,159  INFO Injector:96 
2018-07-29 19:12:02,159  INFO Injector:85 org.matsim.core.scoring.functions.ScoringParametersForPerson 
2018-07-29 19:12:02,159  INFO Injector:86   --> provider: FactoryProxy{key=Key[type=org.matsim.core.scoring.functions.ScoringParametersForPerson, annotation=[none]], provider=com.google.inject.internal.ConstructorBindingImpl$Factory@7bbc8656}
2018-07-29 19:12:02,159  INFO Injector:87   --> source: org.matsim.core.scoring.functions.CharyparNagelScoringFunctionModule.install(CharyparNagelScoringFunctionModule.java:37)
2018-07-29 19:12:02,159  INFO Injector:89   --> scope: Scopes.NO_SCOPE
2018-07-29 19:12:02,159  INFO Injector:92   --> target: Key[type=org.matsim.core.scoring.functions.SubpopulationScoringParameters, annotation=[none]]
2018-07-29 19:12:02,159  INFO Injector:94   ==full==> LinkedKeyBinding{key=Key[type=org.matsim.core.scoring.functions.ScoringParametersForPerson, annotation=[none]], source=org.matsim.core.scoring.functions.CharyparNagelScoringFunctionModule.install(CharyparNagelScoringFunctionModule.java:37), scope=Scopes.NO_SCOPE, target=Key[type=org.matsim.core.scoring.functions.SubpopulationScoringParameters, annotation=[none]]}
2018-07-29 19:12:02,159  INFO Injector:96 
2018-07-29 19:12:02,160  INFO Injector:85 org.matsim.core.router.MainModeIdentifier 
2018-07-29 19:12:02,160  INFO Injector:86   --> provider: FactoryProxy{key=Key[type=org.matsim.core.router.MainModeIdentifier, annotation=[none]], provider=com.google.inject.internal.ConstructorBindingImpl$Factory@d23e042}
2018-07-29 19:12:02,160  INFO Injector:87   --> source: org.matsim.core.router.TripRouterModule.install(TripRouterModule.java:44)
2018-07-29 19:12:02,160  INFO Injector:89   --> scope: Scopes.NO_SCOPE
2018-07-29 19:12:02,160  INFO Injector:92   --> target: Key[type=org.matsim.core.router.MainModeIdentifierImpl, annotation=[none]]
2018-07-29 19:12:02,160  INFO Injector:94   ==full==> LinkedKeyBinding{key=Key[type=org.matsim.core.router.MainModeIdentifier, annotation=[none]], source=org.matsim.core.router.TripRouterModule.install(TripRouterModule.java:44), scope=Scopes.NO_SCOPE, target=Key[type=org.matsim.core.router.MainModeIdentifierImpl, annotation=[none]]}
2018-07-29 19:12:02,160  INFO Injector:96 
2018-07-29 19:12:02,160  INFO Injector:85 org.matsim.core.router.util.LeastCostPathCalculatorFactory 
2018-07-29 19:12:02,161  INFO Injector:86   --> provider: FactoryProxy{key=Key[type=org.matsim.core.router.util.LeastCostPathCalculatorFactory, annotation=[none]], provider=com.google.inject.internal.ConstructorBindingImpl$Factory@51891008[Scopes.SINGLETON]}
2018-07-29 19:12:02,161  INFO Injector:87   --> source: org.matsim.core.router.LeastCostPathCalculatorModule.install(LeastCostPathCalculatorModule.java:44)
2018-07-29 19:12:02,161  INFO Injector:89   --> scope: Scopes.NO_SCOPE
2018-07-29 19:12:02,161  INFO Injector:92   --> target: Key[type=org.matsim.core.router.FastDijkstraFactory, annotation=[none]]
2018-07-29 19:12:02,161  INFO Injector:94   ==full==> LinkedKeyBinding{key=Key[type=org.matsim.core.router.util.LeastCostPathCalculatorFactory, annotation=[none]], source=org.matsim.core.router.LeastCostPathCalculatorModule.install(LeastCostPathCalculatorModule.java:44), scope=Scopes.NO_SCOPE, target=Key[type=org.matsim.core.router.FastDijkstraFactory, annotation=[none]]}
2018-07-29 19:12:02,161  INFO Injector:96 
2018-07-29 19:12:02,162  INFO Injector:85 org.matsim.core.router.RoutingModule @com.google.inject.name.Named(value=ride)
2018-07-29 19:12:02,162  INFO Injector:86   --> provider: org.matsim.core.router.FreespeedFactorRouting@45ca843
2018-07-29 19:12:02,162  INFO Injector:87   --> source: org.matsim.core.router.TripRouterModule.install(TripRouterModule.java:55)
2018-07-29 19:12:02,162  INFO Injector:89   --> scope: Scopes.NO_SCOPE
2018-07-29 19:12:02,162  INFO Injector:94   ==full==> ProviderInstanceBinding{key=Key[type=org.matsim.core.router.RoutingModule, annotation=@com.google.inject.name.Named(value=ride)], source=org.matsim.core.router.TripRouterModule.install(TripRouterModule.java:55), scope=Scopes.NO_SCOPE, provider=org.matsim.core.router.FreespeedFactorRouting@45ca843}
2018-07-29 19:12:02,162  INFO Injector:96 
2018-07-29 19:12:02,163  INFO Injector:85 org.matsim.core.router.RoutingModule @com.google.inject.name.Named(value=pt)
2018-07-29 19:12:02,163  INFO Injector:86   --> provider: org.matsim.core.router.FreespeedFactorRouting@11c9af63
2018-07-29 19:12:02,163  INFO Injector:87   --> source: org.matsim.core.router.TripRouterModule.install(TripRouterModule.java:55)
2018-07-29 19:12:02,163  INFO Injector:89   --> scope: Scopes.NO_SCOPE
2018-07-29 19:12:02,163  INFO Injector:94   ==full==> ProviderInstanceBinding{key=Key[type=org.matsim.core.router.RoutingModule, annotation=@com.google.inject.name.Named(value=pt)], source=org.matsim.core.router.TripRouterModule.install(TripRouterModule.java:55), scope=Scopes.NO_SCOPE, provider=org.matsim.core.router.FreespeedFactorRouting@11c9af63}
2018-07-29 19:12:02,163  INFO Injector:96 
2018-07-29 19:12:02,164  INFO Injector:85 org.matsim.core.router.RoutingModule @com.google.inject.name.Named(value=bike)
2018-07-29 19:12:02,164  INFO Injector:86   --> provider: org.matsim.core.router.BeelineTeleportationRouting@757acd7b
2018-07-29 19:12:02,164  INFO Injector:87   --> source: org.matsim.core.router.TripRouterModule.install(TripRouterModule.java:58)
2018-07-29 19:12:02,164  INFO Injector:89   --> scope: Scopes.NO_SCOPE
2018-07-29 19:12:02,164  INFO Injector:94   ==full==> ProviderInstanceBinding{key=Key[type=org.matsim.core.router.RoutingModule, annotation=@com.google.inject.name.Named(value=bike)], source=org.matsim.core.router.TripRouterModule.install(TripRouterModule.java:58), scope=Scopes.NO_SCOPE, provider=org.matsim.core.router.BeelineTeleportationRouting@757acd7b}
2018-07-29 19:12:02,164  INFO Injector:96 
2018-07-29 19:12:02,164  INFO Injector:85 org.matsim.core.router.RoutingModule @com.google.inject.name.Named(value=walk)
2018-07-29 19:12:02,164  INFO Injector:86   --> provider: org.matsim.core.router.BeelineTeleportationRouting@36b4fe2a
2018-07-29 19:12:02,165  INFO Injector:87   --> source: org.matsim.core.router.TripRouterModule.install(TripRouterModule.java:58)
2018-07-29 19:12:02,165  INFO Injector:89   --> scope: Scopes.NO_SCOPE
2018-07-29 19:12:02,165  INFO Injector:94   ==full==> ProviderInstanceBinding{key=Key[type=org.matsim.core.router.RoutingModule, annotation=@com.google.inject.name.Named(value=walk)], source=org.matsim.core.router.TripRouterModule.install(TripRouterModule.java:58), scope=Scopes.NO_SCOPE, provider=org.matsim.core.router.BeelineTeleportationRouting@36b4fe2a}
2018-07-29 19:12:02,165  INFO Injector:96 
2018-07-29 19:12:02,165  INFO Injector:85 org.matsim.core.router.RoutingModule @com.google.inject.name.Named(value=access_walk)
2018-07-29 19:12:02,165  INFO Injector:86   --> provider: org.matsim.core.router.BeelineTeleportationRouting@574b560f
2018-07-29 19:12:02,165  INFO Injector:87   --> source: org.matsim.core.router.TripRouterModule.install(TripRouterModule.java:58)
2018-07-29 19:12:02,165  INFO Injector:89   --> scope: Scopes.NO_SCOPE
2018-07-29 19:12:02,165  INFO Injector:94   ==full==> ProviderInstanceBinding{key=Key[type=org.matsim.core.router.RoutingModule, annotation=@com.google.inject.name.Named(value=access_walk)], source=org.matsim.core.router.TripRouterModule.install(TripRouterModule.java:58), scope=Scopes.NO_SCOPE, provider=org.matsim.core.router.BeelineTeleportationRouting@574b560f}
2018-07-29 19:12:02,166  INFO Injector:96 
2018-07-29 19:12:02,166  INFO Injector:85 org.matsim.core.router.RoutingModule @com.google.inject.name.Named(value=egress_walk)
2018-07-29 19:12:02,166  INFO Injector:86   --> provider: org.matsim.core.router.BeelineTeleportationRouting@ba54932
2018-07-29 19:12:02,166  INFO Injector:87   --> source: org.matsim.core.router.TripRouterModule.install(TripRouterModule.java:58)
2018-07-29 19:12:02,166  INFO Injector:89   --> scope: Scopes.NO_SCOPE
2018-07-29 19:12:02,166  INFO Injector:94   ==full==> ProviderInstanceBinding{key=Key[type=org.matsim.core.router.RoutingModule, annotation=@com.google.inject.name.Named(value=egress_walk)], source=org.matsim.core.router.TripRouterModule.install(TripRouterModule.java:58), scope=Scopes.NO_SCOPE, provider=org.matsim.core.router.BeelineTeleportationRouting@ba54932}
2018-07-29 19:12:02,166  INFO Injector:96 
2018-07-29 19:12:02,166  INFO Injector:85 org.matsim.core.router.RoutingModule @com.google.inject.name.Named(value=undefined)
2018-07-29 19:12:02,167  INFO Injector:86   --> provider: org.matsim.core.router.BeelineTeleportationRouting@28975c28
2018-07-29 19:12:02,167  INFO Injector:87   --> source: org.matsim.core.router.TripRouterModule.install(TripRouterModule.java:58)
2018-07-29 19:12:02,167  INFO Injector:89   --> scope: Scopes.NO_SCOPE
2018-07-29 19:12:02,167  INFO Injector:94   ==full==> ProviderInstanceBinding{key=Key[type=org.matsim.core.router.RoutingModule, annotation=@com.google.inject.name.Named(value=undefined)], source=org.matsim.core.router.TripRouterModule.install(TripRouterModule.java:58), scope=Scopes.NO_SCOPE, provider=org.matsim.core.router.BeelineTeleportationRouting@28975c28}
2018-07-29 19:12:02,167  INFO Injector:96 
2018-07-29 19:12:02,167  INFO Injector:85 org.matsim.core.replanning.selectors.PlanSelector<org.matsim.api.core.v01.population.Plan, org.matsim.api.core.v01.population.Person> 
2018-07-29 19:12:02,167  INFO Injector:86   --> provider: FactoryProxy{key=Key[type=org.matsim.core.replanning.selectors.PlanSelector<org.matsim.api.core.v01.population.Plan, org.matsim.api.core.v01.population.Person>, annotation=[none]], provider=com.google.inject.internal.ConstructorBindingImpl$Factory@642a7222}
2018-07-29 19:12:02,167  INFO Injector:87   --> source: org.matsim.core.replanning.strategies.DefaultPlanStrategiesModule.install(DefaultPlanStrategiesModule.java:51)
2018-07-29 19:12:02,168  INFO Injector:89   --> scope: Scopes.NO_SCOPE
2018-07-29 19:12:02,168  INFO Injector:92   --> target: Key[type=org.matsim.core.replanning.selectors.WorstPlanForRemovalSelector, annotation=[none]]
[...]
2018-07-29 19:12:32,108  INFO Gbl:57 used RAM: 592663656B = 578773kB = 565MB  free: 557624216B = 531MB  total: 1150287872B = 1097MB
2018-07-29 19:12:32,258  INFO QNetsimEngine:347 SIMULATION (QNetsimEngine) AT 57:00:00 : #links=40 #nodes=6
2018-07-29 19:12:32,258  INFO QSim:506 SIMULATION (NEW QSim) AT 57:00:00 : #Veh=85 lost=0 simT=204901.0s realT=15s; (s/r): 13660.066666666668
2018-07-29 19:12:32,259  INFO Gbl:57 used RAM: 595023344B = 581077kB = 567MB  free: 555264528B = 529MB  total: 1150287872B = 1097MB
2018-07-29 19:12:32,407  INFO QNetsimEngine:347 SIMULATION (QNetsimEngine) AT 58:00:00 : #links=38 #nodes=6
2018-07-29 19:12:32,408  INFO QSim:506 SIMULATION (NEW QSim) AT 58:00:00 : #Veh=79 lost=0 simT=208501.0s realT=16s; (s/r): 13031.3125
2018-07-29 19:12:32,408  INFO Gbl:57 used RAM: 606088008B = 591882kB = 578MB  free: 544199864B = 518MB  total: 1150287872B = 1097MB
2018-07-29 19:12:32,558  INFO QNetsimEngine:347 SIMULATION (QNetsimEngine) AT 59:00:00 : #links=35 #nodes=4
2018-07-29 19:12:32,558  INFO QSim:506 SIMULATION (NEW QSim) AT 59:00:00 : #Veh=73 lost=0 simT=212101.0s realT=16s; (s/r): 13256.3125
2018-07-29 19:12:32,558  INFO Gbl:57 used RAM: 612810512B = 598447kB = 584MB  free: 537477360B = 512MB  total: 1150287872B = 1097MB
2018-07-29 19:12:32,702  INFO QNetsimEngine:347 SIMULATION (QNetsimEngine) AT 60:00:00 : #links=32 #nodes=2
2018-07-29 19:12:32,702  INFO QSim:506 SIMULATION (NEW QSim) AT 60:00:00 : #Veh=68 lost=0 simT=215701.0s realT=16s; (s/r): 13481.3125
2018-07-29 19:12:32,702  INFO Gbl:57 used RAM: 615170208B = 600752kB = 586MB  free: 535117664B = 510MB  total: 1150287872B = 1097MB
2018-07-29 19:12:32,840  INFO QNetsimEngine:347 SIMULATION (QNetsimEngine) AT 61:00:00 : #links=26 #nodes=2
2018-07-29 19:12:32,841  INFO QSim:506 SIMULATION (NEW QSim) AT 61:00:00 : #Veh=60 lost=0 simT=219301.0s realT=16s; (s/r): 13706.3125
2018-07-29 19:12:32,841  INFO Gbl:57 used RAM: 615170208B = 600752kB = 586MB  free: 535117664B = 510MB  total: 1150287872B = 1097MB
2018-07-29 19:12:32,975  INFO QNetsimEngine:347 SIMULATION (QNetsimEngine) AT 62:00:00 : #links=23 #nodes=1
2018-07-29 19:12:32,976  INFO QSim:506 SIMULATION (NEW QSim) AT 62:00:00 : #Veh=54 lost=0 simT=222901.0s realT=16s; (s/r): 13931.3125
2018-07-29 19:12:32,976  INFO Gbl:57 used RAM: 615170208B = 600752kB = 586MB  free: 535117664B = 510MB  total: 1150287872B = 1097MB
2018-07-29 19:12:33,111  INFO QNetsimEngine:347 SIMULATION (QNetsimEngine) AT 63:00:00 : #links=26 #nodes=2
2018-07-29 19:12:33,111  INFO QSim:506 SIMULATION (NEW QSim) AT 63:00:00 : #Veh=47 lost=0 simT=226501.0s realT=16s; (s/r): 14156.3125
2018-07-29 19:12:33,111  INFO Gbl:57 used RAM: 624252416B = 609621kB = 595MB  free: 526035456B = 501MB  total: 1150287872B = 1097MB
2018-07-29 19:12:33,247  INFO QNetsimEngine:347 SIMULATION (QNetsimEngine) AT 64:00:00 : #links=22 #nodes=4
2018-07-29 19:12:33,247  INFO QSim:506 SIMULATION (NEW QSim) AT 64:00:00 : #Veh=34 lost=0 simT=230101.0s realT=16s; (s/r): 14381.3125
2018-07-29 19:12:33,247  INFO Gbl:57 used RAM: 625231112B = 610577kB = 596MB  free: 525056760B = 500MB  total: 1150287872B = 1097MB
2018-07-29 19:12:33,387  INFO QNetsimEngine:347 SIMULATION (QNetsimEngine) AT 65:00:00 : #links=13 #nodes=3
2018-07-29 19:12:33,387  INFO QSim:506 SIMULATION (NEW QSim) AT 65:00:00 : #Veh=19 lost=0 simT=233701.0s realT=17s; (s/r): 13747.117647058823
2018-07-29 19:12:33,387  INFO Gbl:57 used RAM: 638655472B = 623686kB = 609MB  free: 511632400B = 487MB  total: 1150287872B = 1097MB
2018-07-29 19:12:33,515  INFO QNetsimEngine:347 SIMULATION (QNetsimEngine) AT 66:00:00 : #links=6 #nodes=1
2018-07-29 19:12:33,515  INFO QSim:506 SIMULATION (NEW QSim) AT 66:00:00 : #Veh=8 lost=0 simT=237301.0s realT=17s; (s/r): 13958.882352941177
2018-07-29 19:12:33,515  INFO Gbl:57 used RAM: 638655472B = 623686kB = 609MB  free: 511632400B = 487MB  total: 1150287872B = 1097MB
2018-07-29 19:12:33,639  INFO QNetsimEngine:347 SIMULATION (QNetsimEngine) AT 67:00:00 : #links=1 #nodes=0
2018-07-29 19:12:33,639  INFO QSim:506 SIMULATION (NEW QSim) AT 67:00:00 : #Veh=1 lost=0 simT=240901.0s realT=17s; (s/r): 14170.64705882353
2018-07-29 19:12:33,639  INFO Gbl:57 used RAM: 645377976B = 630251kB = 615MB  free: 504909896B = 481MB  total: 1150287872B = 1097MB
2018-07-29 19:12:33,655  INFO AbstractController$9:220 ### ITERATION 0 fires after mobsim event
2018-07-29 19:12:33,656  INFO Gbl:190 Thread performance: Thread=class org.matsim.core.events.SimStepParallelEventsManagerImpl$ProcessEventsRunnable0  cpu-time=2.818095sec
2018-07-29 19:12:33,656  INFO ControlerListenerManagerImpl:248 calling notifyAfterMobsim on org.matsim.analysis.LegTimesControlerListener
2018-07-29 19:12:33,656  INFO LegTimesControlerListener:50 [0] average trip (probably: leg) duration is: 69495 seconds = 19:18:15
2018-07-29 19:12:33,656  INFO ControlerListenerManagerImpl:248 calling notifyAfterMobsim on org.matsim.contrib.decongestion.DecongestionControlerListener
2018-07-29 19:12:33,849  INFO CongestionInfoWriter:53 Writing csv file...
2018-07-29 19:12:34,147  INFO CongestionInfoWriter:87 Output written to test/output/femproto/run/DifferentVariantsTestIT/test//justRunInitialPlansFile_takeTimesFromInputPlans/ITERS/it.0/delays_perLinkAndTimeBin.csv
2018-07-29 19:12:34,147  INFO CongestionInfoWriter:137 Writing csv file...
2018-07-29 19:12:34,329  INFO CongestionInfoWriter:171 Output written to test/output/femproto/run/DifferentVariantsTestIT/test//justRunInitialPlansFile_takeTimesFromInputPlans/ITERS/it.0/toll_perLinkAndTimeBin.csv
2018-07-29 19:12:34,329  INFO CongestionInfoWriter:212 Writing csv file...
2018-07-29 19:12:36,660  INFO CongestionInfoWriter:261 Output written to test/output/femproto/run/DifferentVariantsTestIT/test//justRunInitialPlansFile_takeTimesFromInputPlans/ITERS/it.0/0.decongestion_info_via.csv.gz
2018-07-29 19:12:36,661  INFO ControlerListenerManagerImpl:248 calling notifyAfterMobsim on org.matsim.core.scoring.EventsToActivities$1
2018-07-29 19:12:36,661  WARN CharyparNagelActivityScoring:252 The first and the last activity do not have the same type. 
2018-07-29 19:12:36,661  WARN CharyparNagelActivityScoring:253 Will score the first activity from midnight to its end, and the last activity from its start to midnight.
2018-07-29 19:12:36,661  WARN CharyparNagelActivityScoring:254 Because of the nonlinear function, this is not the same as scoring from start to end.
2018-07-29 19:12:36,662  WARN CharyparNagelActivityScoring:255 first activity: [type=evac][coord=null][linkId=15806-11066][startTime=undefined][endTime=07:05:00][duration=undefined][facilityId=null]
2018-07-29 19:12:36,662  WARN CharyparNagelActivityScoring:256 last activity: [type=safe][coord=null][linkId=10958-13225][startTime=08:00:09][endTime=undefined][duration=undefined][facilityId=null]
2018-07-29 19:12:36,662  WARN CharyparNagelActivityScoring:257 This may also happen when plans are not completed when the simulation ends.
2018-07-29 19:12:36,662  WARN CharyparNagelActivityScoring:259 Additional warnings of this type are suppressed.
2018-07-29 19:12:36,664  INFO ControlerListenerManagerImpl:251 [it.0] all ControlerAfterMobsimListeners called.
2018-07-29 19:12:36,666  INFO AbstractController$4:149 ### ITERATION 0 fires scoring event
2018-07-29 19:12:36,666  INFO ControlerListenerManagerImpl:183 calling notifyScoring on org.matsim.core.scoring.PlansScoringImpl
2018-07-29 19:12:36,669  INFO NewScoreAssignerImpl:36 it: 0 msaStart: 0
2018-07-29 19:12:36,671  INFO ControlerListenerManagerImpl:194 [it.0] all ControlerScoringListeners called.
2018-07-29 19:12:36,672  INFO AbstractController$5:157 ### ITERATION 0 fires iteration end event
2018-07-29 19:12:36,672  INFO ControlerListenerManagerImpl:160 calling notifyIterationEnds on org.matsim.core.controler.corelisteners.EventsHandlingImpl
2018-07-29 19:12:36,673  INFO EventsManagerImpl:161 removing Event-Handler: org.matsim.core.events.algorithms.EventWriterXML
2018-07-29 19:12:36,674  INFO EventsManagerImpl:161 removing Event-Handler: org.matsim.core.events.algorithms.EventWriterXML
2018-07-29 19:12:36,674  INFO ControlerListenerManagerImpl:160 calling notifyIterationEnds on org.matsim.core.scoring.PlansScoringImpl
2018-07-29 19:12:36,675  INFO PopulationImpl:112  person # 1
2018-07-29 19:12:36,675  INFO PopulationImpl:112  person # 4
2018-07-29 19:12:36,675  INFO PopulationImpl:112  person # 16
2018-07-29 19:12:36,676  INFO PopulationImpl:112  person # 64
2018-07-29 19:12:36,676  INFO PopulationImpl:112  person # 256
2018-07-29 19:12:36,677  INFO Counter:70 [PopulationWriter] dumped person # 1
2018-07-29 19:12:36,677  INFO Counter:70 [PopulationWriter] dumped person # 2
2018-07-29 19:12:36,678  INFO Counter:70 [PopulationWriter] dumped person # 4
2018-07-29 19:12:36,678  INFO Counter:70 [PopulationWriter] dumped person # 8
2018-07-29 19:12:36,678  INFO Counter:70 [PopulationWriter] dumped person # 16
2018-07-29 19:12:36,679  INFO Counter:70 [PopulationWriter] dumped person # 32
2018-07-29 19:12:36,680  INFO Counter:70 [PopulationWriter] dumped person # 64
2018-07-29 19:12:36,682  INFO Counter:70 [PopulationWriter] dumped person # 128
2018-07-29 19:12:36,685  INFO Counter:70 [PopulationWriter] dumped person # 256
2018-07-29 19:12:36,692  INFO Counter:70 [PopulationWriter] dumped person # 512
2018-07-29 19:12:36,701  INFO PopulationWriter:139 Population written to: test/output/femproto/run/DifferentVariantsTestIT/test//justRunInitialPlansFile_takeTimesFromInputPlans/ITERS/it.0/0.experienced_plans.xml.gz
2018-07-29 19:12:36,702  INFO Counter:76 [PopulationWriter] dumped person # 802
2018-07-29 19:12:36,707  INFO ControlerListenerManagerImpl:167 calling notifyIterationEnds on org.matsim.counts.CountsControlerListener
2018-07-29 19:12:36,707  INFO ControlerListenerManagerImpl:167 calling notifyIterationEnds on org.matsim.analysis.ModeStatsControlerListener
2018-07-29 19:12:36,711  INFO ModeStatsControlerListener:155 -- mode share of mode bike = 0.0
2018-07-29 19:12:36,711  INFO ModeStatsControlerListener:155 -- mode share of mode car = 1.0
2018-07-29 19:12:36,711  INFO ModeStatsControlerListener:155 -- mode share of mode other = 0.0
2018-07-29 19:12:36,712  INFO ModeStatsControlerListener:155 -- mode share of mode pt = 0.0
2018-07-29 19:12:36,712  INFO ModeStatsControlerListener:155 -- mode share of mode ride = 0.0
2018-07-29 19:12:36,712  INFO ModeStatsControlerListener:155 -- mode share of mode walk = 0.0
2018-07-29 19:12:36,712  INFO ControlerListenerManagerImpl:167 calling notifyIterationEnds on org.matsim.analysis.ScoreStatsControlerListener
2018-07-29 19:12:36,714  INFO ScoreStatsControlerListener:191 -- avg. score of the executed plan of each agent: -152270.15724882114
2018-07-29 19:12:36,714  INFO ScoreStatsControlerListener:192 -- avg. score of the worst plan of each agent: -152270.15724882114
2018-07-29 19:12:36,714  INFO ScoreStatsControlerListener:193 -- avg. of the avg. plan score per agent: -152270.15724882114
2018-07-29 19:12:36,715  INFO ScoreStatsControlerListener:194 -- avg. score of the best plan of each agent: -152270.15724882114
2018-07-29 19:12:36,715  INFO ControlerListenerManagerImpl:167 calling notifyIterationEnds on org.matsim.analysis.TravelDistanceStatsControlerListener
2018-07-29 19:12:36,716  INFO TravelDistanceStats:128 [TravelDistanceStats] using 2 thread(s).
2018-07-29 19:12:36,717  INFO TravelDistanceStats:141 [TravelDistanceStats] all threads finished.
2018-07-29 19:12:36,717  INFO TravelDistanceStats:161 -- average of the average leg distance per plan (executed plans only): 66544.46107954124
2018-07-29 19:12:36,717  INFO TravelDistanceStats:162 (TravelDistanceStats takes an average over all legs where the simulation reports travelled distances. These are car legs, pt legs,
2018-07-29 19:12:36,717  INFO TravelDistanceStats:163 (and teleported legs whose route contains a distance.)
2018-07-29 19:12:36,717  INFO ControlerListenerManagerImpl:167 calling notifyIterationEnds on org.matsim.analysis.LegHistogramListener
2018-07-29 19:12:36,720  INFO LegHistogramListener:72 number of legs:	802	100%
2018-07-29 19:12:36,720  INFO LegHistogramListener:79 number of car legs:	802	100.0%
2018-07-29 19:12:38,588  INFO ControlerListenerManagerImpl:167 calling notifyIterationEnds on org.matsim.analysis.LinkStatsControlerListener
2018-07-29 19:12:38,588  INFO ControlerListenerManagerImpl:167 calling notifyIterationEnds on org.matsim.contrib.decongestion.DecongestionControlerListener
2018-07-29 19:12:38,590  INFO CongestionInfoWriter:297 Output written to test/output/femproto/run/DifferentVariantsTestIT/test//justRunInitialPlansFile_takeTimesFromInputPlans/congestionInfo.csv
2018-07-29 19:12:38,728  INFO ControlerListenerManagerImpl:167 calling notifyIterationEnds on femproto.run.OutputEvents2TravelDiaries
2018-07-29 19:12:38,730  INFO Counter:70 Output lines written: 1
2018-07-29 19:12:38,730  INFO Counter:70 Output lines written: 2
2018-07-29 19:12:38,731  INFO Counter:70 Output lines written: 4
2018-07-29 19:12:38,733  INFO Counter:70 Output lines written: 8
2018-07-29 19:12:38,735  INFO Counter:70 Output lines written: 16
2018-07-29 19:12:38,738  INFO Counter:70 Output lines written: 32
2018-07-29 19:12:38,744  INFO Counter:70 Output lines written: 64
2018-07-29 19:12:38,753  INFO Counter:70 Output lines written: 128
2018-07-29 19:12:38,765  INFO Counter:70 Output lines written: 256
2018-07-29 19:12:38,777  INFO Counter:70 Output lines written: 512
2018-07-29 19:12:38,796  INFO Counter:70 Output lines written: 1024
2018-07-29 19:12:38,818  INFO Counter:76 Output lines written: 1604
2018-07-29 19:12:38,818  INFO ControlerListenerManagerImpl:167 calling notifyIterationEnds on org.matsim.contrib.analysis.kai.KaiAnalysisListener
2018-07-29 19:12:38,842  INFO ControlerListenerManagerImpl:171 [it.0] all ControlerIterationEndsListeners called.
2018-07-29 19:12:39,004  INFO AbstractController:167 ### ITERATION 0 ENDS
2018-07-29 19:12:39,004  INFO AbstractController:168 ###################################################
2018-07-29 19:12:39,004  INFO MatsimRuntimeModifications:58 S H U T D O W N   ---   start shutdown.
2018-07-29 19:12:39,004  INFO ControlerListenerManagerImpl:121 calling notifyShutdown on org.matsim.core.controler.corelisteners.EventsHandlingImpl
2018-07-29 19:12:39,005  INFO ControlerListenerManagerImpl:121 calling notifyShutdown on org.matsim.core.controler.corelisteners.DumpDataAtEndImpl
2018-07-29 19:12:39,006  INFO Counter:70 [PopulationWriter] dumped person # 1
2018-07-29 19:12:39,006  INFO Counter:70 [PopulationWriter] dumped person # 2
2018-07-29 19:12:39,006  INFO Counter:70 [PopulationWriter] dumped person # 4
2018-07-29 19:12:39,007  INFO Counter:70 [PopulationWriter] dumped person # 8
2018-07-29 19:12:39,009  INFO Counter:70 [PopulationWriter] dumped person # 16
2018-07-29 19:12:39,012  INFO Counter:70 [PopulationWriter] dumped person # 32
2018-07-29 19:12:39,019  INFO Counter:70 [PopulationWriter] dumped person # 64
2018-07-29 19:12:39,030  INFO Counter:70 [PopulationWriter] dumped person # 128
2018-07-29 19:12:39,055  INFO Counter:70 [PopulationWriter] dumped person # 256
2018-07-29 19:12:39,108  INFO Counter:70 [PopulationWriter] dumped person # 512
2018-07-29 19:12:39,168  INFO PopulationWriter:139 Population written to: test/output/femproto/run/DifferentVariantsTestIT/test//justRunInitialPlansFile_takeTimesFromInputPlans/output_plans.xml.gz
2018-07-29 19:12:39,168  INFO Counter:76 [PopulationWriter] dumped person # 802
2018-07-29 19:12:39,173  INFO NetworkWriter:68 Writing network to file: test/output/femproto/run/DifferentVariantsTestIT/test//justRunInitialPlansFile_takeTimesFromInputPlans/output_network.xml.gz...
2018-07-29 19:12:39,272  INFO NetworkWriter:71 done.
2018-07-29 19:12:39,276  INFO Config:569 setting context to [file:/Users/kainagel/git/au-flood-evacuation/]
2018-07-29 19:12:39,279  INFO Config:569 setting context to [file:/Users/kainagel/git/au-flood-evacuation/]
2018-07-29 19:12:39,281  INFO Config:569 setting context to [file:/Users/kainagel/git/au-flood-evacuation/]
2018-07-29 19:12:39,282  INFO Config:569 setting context to [file:/Users/kainagel/git/au-flood-evacuation/]
2018-07-29 19:12:39,284  INFO Config:569 setting context to [file:/Users/kainagel/git/au-flood-evacuation/]
2018-07-29 19:12:39,289  INFO Config:569 setting context to [file:/Users/kainagel/git/au-flood-evacuation/]
2018-07-29 19:12:39,291  INFO Config:569 setting context to [file:/Users/kainagel/git/au-flood-evacuation/]
2018-07-29 19:12:39,293  INFO Config:569 setting context to [file:/Users/kainagel/git/au-flood-evacuation/]
2018-07-29 19:12:39,295  INFO Config:569 setting context to [file:/Users/kainagel/git/au-flood-evacuation/]
2018-07-29 19:12:39,298  INFO Config:569 setting context to [file:/Users/kainagel/git/au-flood-evacuation/]
2018-07-29 19:12:39,299  INFO Config:569 setting context to [file:/Users/kainagel/git/au-flood-evacuation/]
2018-07-29 19:12:39,302  INFO Config:569 setting context to [file:/Users/kainagel/git/au-flood-evacuation/]
2018-07-29 19:12:39,304  INFO Config:569 setting context to [file:/Users/kainagel/git/au-flood-evacuation/]
2018-07-29 19:12:39,306  INFO Config:569 setting context to [file:/Users/kainagel/git/au-flood-evacuation/]
2018-07-29 19:12:39,311  INFO Config:569 setting context to [file:/Users/kainagel/git/au-flood-evacuation/]
2018-07-29 19:12:39,313  INFO Config:569 setting context to [file:/Users/kainagel/git/au-flood-evacuation/]
2018-07-29 19:12:39,316  INFO Config:569 setting context to [file:/Users/kainagel/git/au-flood-evacuation/]
2018-07-29 19:12:39,318  INFO Config:569 setting context to [file:/Users/kainagel/git/au-flood-evacuation/]
2018-07-29 19:12:39,326  INFO Config:569 setting context to [file:/Users/kainagel/git/au-flood-evacuation/]
2018-07-29 19:12:39,328  INFO Config:569 setting context to [file:/Users/kainagel/git/au-flood-evacuation/]
2018-07-29 19:12:39,329  INFO Config:569 setting context to [file:/Users/kainagel/git/au-flood-evacuation/]
2018-07-29 19:12:39,331  INFO Config:569 setting context to [file:/Users/kainagel/git/au-flood-evacuation/]
2018-07-29 19:12:39,333  INFO Config:569 setting context to [file:/Users/kainagel/git/au-flood-evacuation/]
2018-07-29 19:12:39,335  INFO Config:569 setting context to [file:/Users/kainagel/git/au-flood-evacuation/]
2018-07-29 19:12:39,337  INFO Config:569 setting context to [file:/Users/kainagel/git/au-flood-evacuation/]
2018-07-29 19:12:39,339  INFO Config:569 setting context to [file:/Users/kainagel/git/au-flood-evacuation/]
2018-07-29 19:12:39,341  INFO Config:569 setting context to [file:/Users/kainagel/git/au-flood-evacuation/]
2018-07-29 19:12:39,350  INFO VehicleWriterV1:55 Vehicles written to: test/output/femproto/run/DifferentVariantsTestIT/test//justRunInitialPlansFile_takeTimesFromInputPlans/output_vehicles.xml.gz
2018-07-29 19:12:39,353  INFO Counter:76 [HouseholdsWriter] dumped household # 0
2018-07-29 19:12:39,356  INFO LanesWriter:62 Using LaneDefinitionWriter20...
2018-07-29 19:12:39,356  INFO LanesWriter:71 writing to file: test/output/femproto/run/DifferentVariantsTestIT/test//justRunInitialPlansFile_takeTimesFromInputPlans/output_lanes.xml.gz
2018-07-29 19:12:39,470  INFO ControlerListenerManagerImpl:126 calling notifyShutdown on org.matsim.analysis.ModeStatsControlerListener
2018-07-29 19:12:39,470  INFO ControlerListenerManagerImpl:126 calling notifyShutdown on org.matsim.analysis.ScoreStatsControlerListener
2018-07-29 19:12:39,470  INFO ControlerListenerManagerImpl:126 calling notifyShutdown on org.matsim.analysis.TravelDistanceStatsControlerListener
2018-07-29 19:12:39,470  INFO ControlerListenerManagerImpl:129 all ControlerShutdownListeners called.
2018-07-29 19:12:39,470  INFO MatsimRuntimeModifications:81 S H U T D O W N   ---   shutdown completed.
2018-07-29 19:12:39,470  INFO OutputDirectoryLogging:146 closing the logfile, i.e. messages sent to the logger after this message are not written to the logfile.
