2018-07-29 19:19:24,658  INFO Config:569 setting context to [file:/Users/kainagel/git/au-flood-evacuation/]
2018-07-29 19:19:24,659  INFO MatsimXmlParser:155 starting to parse xml from url file:/Users/kainagel/git/au-flood-evacuation/scenarios/fem2016_v20180307/configSmall.xml ...
2018-07-29 19:19:24,660  INFO ConfigReader:102 using config_v2-reader
2018-07-29 19:19:24,660  INFO MatsimXmlParser:270 Trying to load http://www.matsim.org/files/dtd/config_v2.dtd. In some cases (e.g. network interface up but no connection), this may take a bit.
2018-07-29 19:19:24,730  INFO Config:569 setting context to [file:/Users/kainagel/git/au-flood-evacuation/scenarios/fem2016_v20180307/configSmall.xml]
2018-07-29 19:19:24,741  WARN RunMatsim4FloodEvacuation:421 runType=optimizeSafeNodesByPerson
2018-07-29 19:19:24,742  INFO MatsimXmlParser:155 starting to parse xml from url file:/Users/kainagel/git/au-flood-evacuation/scenarios/fem2016_v20180307/overridingConfig.xml ...
2018-07-29 19:19:24,743  INFO ConfigReader:102 using config_v2-reader
2018-07-29 19:19:24,743  INFO MatsimXmlParser:270 Trying to load http://www.matsim.org/files/dtd/config_v2.dtd. In some cases (e.g. network interface up but no connection), this may take a bit.
2018-07-29 19:19:24,814  INFO ScenarioLoaderImpl:107 loading scenario from base directory: /Users/kainagel/git/au-flood-evacuation/
2018-07-29 19:19:24,814  INFO ScenarioLoaderImpl:129 loading network from file:/Users/kainagel/git/au-flood-evacuation/scenarios/fem2016_v20180307/hn_net_ses_emme_2016_V12_network.xml.gz
2018-07-29 19:19:24,814  INFO MatsimXmlParser:155 starting to parse xml from url file:/Users/kainagel/git/au-flood-evacuation/scenarios/fem2016_v20180307/hn_net_ses_emme_2016_V12_network.xml.gz ...
2018-07-29 19:19:24,816  INFO MatsimNetworkReader:95 using network_v2-reader.
2018-07-29 19:19:24,816  INFO MatsimXmlParser:270 Trying to load http://www.matsim.org/files/dtd/network_v2.dtd. In some cases (e.g. network interface up but no connection), this may take a bit.
2018-07-29 19:19:24,890  INFO NetworkImpl:167  node # 1
2018-07-29 19:19:24,891  INFO NetworkImpl:167  node # 4
2018-07-29 19:19:24,891  INFO NetworkImpl:167  node # 16
2018-07-29 19:19:24,891  INFO NetworkImpl:167  node # 64
2018-07-29 19:19:24,892  INFO NetworkImpl:167  node # 256
2018-07-29 19:19:24,894  INFO NetworkImpl:167  node # 1024
2018-07-29 19:19:24,899  INFO NetworkImpl:163  link # 1
2018-07-29 19:19:24,900  INFO NetworkImpl:163  link # 4
2018-07-29 19:19:24,900  INFO NetworkImpl:163  link # 16
2018-07-29 19:19:24,900  INFO NetworkImpl:163  link # 64
2018-07-29 19:19:24,902  INFO NetworkImpl:163  link # 256
2018-07-29 19:19:24,912  INFO NetworkImpl:163  link # 1024
2018-07-29 19:19:24,952  INFO NetworkImpl:163  link # 4096
2018-07-29 19:19:25,035  INFO ScenarioLoaderImpl:147 loading network change events from /Users/kainagel/git/au-flood-evacuation/scenarios/fem2016_v20180307/d09693_H_change_events.xml.gz
2018-07-29 19:19:25,035  INFO MatsimXmlParser:155 starting to parse xml from url file:/Users/kainagel/git/au-flood-evacuation/scenarios/fem2016_v20180307/d09693_H_change_events.xml.gz ...
2018-07-29 19:19:25,037  INFO MatsimXmlParser:270 Trying to load http://www.matsim.org/files/dtd/networkChangeEvents.xsd. In some cases (e.g. network interface up but no connection), this may take a bit.
2018-07-29 19:19:25,106  INFO MatsimXmlParser:270 Trying to load http://www.matsim.org/files/dtd/matsimCommon.xsd. In some cases (e.g. network interface up but no connection), this may take a bit.
2018-07-29 19:19:25,188  INFO ScenarioLoaderImpl:181 no facilities file set in config, therefore not loading any facilities.  This is not a problem except if you are using facilities
2018-07-29 19:19:25,189  INFO ScenarioLoaderImpl:191 no facility-attributes file set in config, not loading any facility attributes
2018-07-29 19:19:25,189  INFO ScenarioLoaderImpl:198 loading population from file:/Users/kainagel/git/au-flood-evacuation/scenarios/fem2016_v20180307/pop.xml.gz
2018-07-29 19:19:25,189  INFO MatsimXmlParser:155 starting to parse xml from url file:/Users/kainagel/git/au-flood-evacuation/scenarios/fem2016_v20180307/pop.xml.gz ...
2018-07-29 19:19:25,190  INFO PopulationReader:109 using population_v6-reader.
2018-07-29 19:19:25,191  INFO MatsimXmlParser:270 Trying to load http://www.matsim.org/files/dtd/population_v6.dtd. In some cases (e.g. network interface up but no connection), this may take a bit.
2018-07-29 19:19:25,258  INFO PopulationImpl:112  person # 1
2018-07-29 19:19:25,258  INFO PopulationImpl:112  person # 4
2018-07-29 19:19:25,259  INFO PopulationImpl:112  person # 16
2018-07-29 19:19:25,260  INFO PopulationImpl:112  person # 64
2018-07-29 19:19:25,263  INFO PopulationImpl:112  person # 256
2018-07-29 19:19:25,274  INFO PopulationImpl:112  person # 1024
2018-07-29 19:19:25,319  INFO PopulationImpl:112  person # 4096
2018-07-29 19:19:25,748  INFO PopulationImpl:112  person # 16384
2018-07-29 19:19:26,557  INFO PopulationImpl:112  person # 65536
2018-07-29 19:19:26,717  INFO PopulationUtils:1004  person # 76169
2018-07-29 19:19:26,717  INFO ScenarioLoaderImpl:234 no person-attributes file set in config, not loading any person attributes
2018-07-29 19:19:26,717  INFO ScenarioLoaderImpl:246 no households file set in config, not loading households
2018-07-29 19:19:26,717  INFO ScenarioLoaderImpl:257 no household-attributes file set in config, not loading any household attributes
2018-07-29 19:19:26,717  INFO ScenarioLoaderImpl:283 no transit schedule file set in config, not loading any transit schedule
2018-07-29 19:19:26,718  INFO ScenarioLoaderImpl:310 no transit vehicles file set in config, not loading any transit vehicles
2018-07-29 19:19:26,736  INFO FEMUtils:160 safeLinkIDs:
2018-07-29 19:19:26,736  INFO FEMUtils:162 15136-24070
2018-07-29 19:19:26,736  INFO FEMUtils:162 13082-11096
2018-07-29 19:19:26,736  INFO FEMUtils:162 11119-15923
2018-07-29 19:19:26,736  INFO FEMUtils:162 10958-13225
2018-07-29 19:19:26,736  INFO FEMUtils:162 11139-10480
2018-07-29 19:19:26,736  INFO FEMUtils:162 10946-10945
2018-07-29 19:19:26,736  INFO FEMUtils:162 24690-10392
2018-07-29 19:19:26,736  INFO FEMUtils:162 40089-40085
2018-07-29 19:19:26,737  INFO FEMUtils:162 50009-2774
2018-07-29 19:19:26,737  INFO FEMUtils:162 18423-18439
2018-07-29 19:19:26,737  INFO FEMUtils:162 51258-50063
2018-07-29 19:19:26,737  INFO FEMUtils:162 52104-52105
2018-07-29 19:19:26,737  INFO FEMUtils:162 40394-40402
2018-07-29 19:19:26,894  INFO SimStepParallelEventsManagerImpl:79 number of threads=1
2018-07-29 19:19:26,894  INFO EventsManagerImpl:144 adding Event-Handler: org.matsim.core.trafficmonitoring.TravelTimeCalculator
2018-07-29 19:19:26,894  INFO EventsManagerImpl:148   org.matsim.api.core.v01.events.handler.LinkEnterEventHandler
2018-07-29 19:19:26,895  INFO EventsManagerImpl:207     > org.matsim.api.core.v01.events.LinkEnterEvent
2018-07-29 19:19:26,895  INFO EventsManagerImpl:148   org.matsim.api.core.v01.events.handler.LinkLeaveEventHandler
2018-07-29 19:19:26,895  INFO EventsManagerImpl:207     > org.matsim.api.core.v01.events.LinkLeaveEvent
2018-07-29 19:19:26,895  INFO EventsManagerImpl:148   org.matsim.api.core.v01.events.handler.VehicleEntersTrafficEventHandler
2018-07-29 19:19:26,895  INFO EventsManagerImpl:207     > org.matsim.api.core.v01.events.VehicleEntersTrafficEvent
2018-07-29 19:19:26,895  INFO EventsManagerImpl:148   org.matsim.api.core.v01.events.handler.VehicleLeavesTrafficEventHandler
2018-07-29 19:19:26,896  INFO EventsManagerImpl:207     > org.matsim.api.core.v01.events.VehicleLeavesTrafficEvent
2018-07-29 19:19:26,896  INFO EventsManagerImpl:148   org.matsim.core.api.experimental.events.handler.VehicleArrivesAtFacilityEventHandler
2018-07-29 19:19:26,896  INFO EventsManagerImpl:207     > org.matsim.core.api.experimental.events.VehicleArrivesAtFacilityEvent
2018-07-29 19:19:26,896  INFO EventsManagerImpl:148   org.matsim.api.core.v01.events.handler.VehicleAbortsEventHandler
2018-07-29 19:19:26,896  INFO EventsManagerImpl:207     > org.matsim.api.core.v01.events.VehicleAbortsEvent
2018-07-29 19:19:26,896  INFO EventsManagerImpl:156 
2018-07-29 19:19:26,896  INFO EventsManagerImpl:144 adding Event-Handler: org.matsim.core.trafficmonitoring.TravelTimeCalculator
2018-07-29 19:19:26,897  INFO EventsManagerImpl:148   org.matsim.api.core.v01.events.handler.LinkEnterEventHandler
2018-07-29 19:19:26,897  INFO EventsManagerImpl:207     > org.matsim.api.core.v01.events.LinkEnterEvent
2018-07-29 19:19:26,897  INFO EventsManagerImpl:148   org.matsim.api.core.v01.events.handler.LinkLeaveEventHandler
2018-07-29 19:19:26,897  INFO EventsManagerImpl:207     > org.matsim.api.core.v01.events.LinkLeaveEvent
2018-07-29 19:19:26,897  INFO EventsManagerImpl:148   org.matsim.api.core.v01.events.handler.VehicleEntersTrafficEventHandler
2018-07-29 19:19:26,897  INFO EventsManagerImpl:207     > org.matsim.api.core.v01.events.VehicleEntersTrafficEvent
2018-07-29 19:19:26,898  INFO EventsManagerImpl:148   org.matsim.api.core.v01.events.handler.VehicleLeavesTrafficEventHandler
2018-07-29 19:19:26,898  INFO EventsManagerImpl:207     > org.matsim.api.core.v01.events.VehicleLeavesTrafficEvent
2018-07-29 19:19:26,898  INFO EventsManagerImpl:148   org.matsim.core.api.experimental.events.handler.VehicleArrivesAtFacilityEventHandler
2018-07-29 19:19:26,898  INFO EventsManagerImpl:207     > org.matsim.core.api.experimental.events.VehicleArrivesAtFacilityEvent
2018-07-29 19:19:26,898  INFO EventsManagerImpl:148   org.matsim.api.core.v01.events.handler.VehicleAbortsEventHandler
2018-07-29 19:19:26,898  INFO EventsManagerImpl:207     > org.matsim.api.core.v01.events.VehicleAbortsEvent
2018-07-29 19:19:26,898  INFO EventsManagerImpl:156 
2018-07-29 19:19:26,899  INFO NetworkImpl:167  node # 1
2018-07-29 19:19:26,899  INFO NetworkImpl:167  node # 4
2018-07-29 19:19:26,899  INFO NetworkImpl:167  node # 16
2018-07-29 19:19:26,899  INFO NetworkImpl:167  node # 64
2018-07-29 19:19:26,899  INFO NetworkImpl:167  node # 256
2018-07-29 19:19:26,900  INFO NetworkImpl:167  node # 1024
2018-07-29 19:19:26,901  INFO NetworkImpl:163  link # 1
2018-07-29 19:19:26,901  INFO NetworkImpl:163  link # 4
2018-07-29 19:19:26,901  INFO NetworkImpl:163  link # 16
2018-07-29 19:19:26,901  INFO NetworkImpl:163  link # 64
2018-07-29 19:19:26,901  INFO NetworkImpl:163  link # 256
2018-07-29 19:19:26,903  INFO NetworkImpl:163  link # 1024
2018-07-29 19:19:26,907  INFO NetworkImpl:163  link # 4096
2018-07-29 19:19:26,924  INFO StrategyManager:62 global innovation switch off after iteration: 2147483647
2018-07-29 19:19:26,925  INFO GenericStrategyManager:331 added change request:  iteration=91 newWeight=0.0 strategy=RandomPlanSelector
2018-07-29 19:19:26,925  INFO GenericStrategyManager:363 setting PlanSelectorForRemoval to class org.matsim.core.replanning.selectors.WorstPlanForRemovalSelector
2018-07-29 19:19:26,926  INFO EventsManagerImpl:144 adding Event-Handler: org.matsim.core.scoring.EventsToActivities
2018-07-29 19:19:26,926  INFO EventsManagerImpl:148   org.matsim.api.core.v01.events.handler.ActivityStartEventHandler
2018-07-29 19:19:26,926  INFO EventsManagerImpl:207     > org.matsim.api.core.v01.events.ActivityStartEvent
2018-07-29 19:19:26,926  INFO EventsManagerImpl:148   org.matsim.api.core.v01.events.handler.ActivityEndEventHandler
2018-07-29 19:19:26,926  INFO EventsManagerImpl:207     > org.matsim.api.core.v01.events.ActivityEndEvent
2018-07-29 19:19:26,926  INFO EventsManagerImpl:156 
2018-07-29 19:19:26,926  INFO EventsManagerImpl:144 adding Event-Handler: org.matsim.core.scoring.EventsToActivities
2018-07-29 19:19:26,927  INFO EventsManagerImpl:148   org.matsim.api.core.v01.events.handler.ActivityStartEventHandler
2018-07-29 19:19:26,927  INFO EventsManagerImpl:207     > org.matsim.api.core.v01.events.ActivityStartEvent
2018-07-29 19:19:26,927  INFO EventsManagerImpl:148   org.matsim.api.core.v01.events.handler.ActivityEndEventHandler
2018-07-29 19:19:26,927  INFO EventsManagerImpl:207     > org.matsim.api.core.v01.events.ActivityEndEvent
2018-07-29 19:19:26,927  INFO EventsManagerImpl:156 
2018-07-29 19:19:26,927  INFO EventsManagerImpl:144 adding Event-Handler: org.matsim.core.scoring.EventsToLegs
2018-07-29 19:19:26,927  INFO EventsManagerImpl:148   org.matsim.api.core.v01.events.handler.PersonDepartureEventHandler
2018-07-29 19:19:26,928  INFO EventsManagerImpl:207     > org.matsim.api.core.v01.events.PersonDepartureEvent
2018-07-29 19:19:26,928  INFO EventsManagerImpl:148   org.matsim.api.core.v01.events.handler.PersonArrivalEventHandler
2018-07-29 19:19:26,928  INFO EventsManagerImpl:207     > org.matsim.api.core.v01.events.PersonArrivalEvent
2018-07-29 19:19:26,928  INFO EventsManagerImpl:148   org.matsim.api.core.v01.events.handler.LinkLeaveEventHandler
2018-07-29 19:19:26,928  INFO EventsManagerImpl:207     > org.matsim.api.core.v01.events.LinkLeaveEvent
2018-07-29 19:19:26,928  INFO EventsManagerImpl:148   org.matsim.api.core.v01.events.handler.LinkEnterEventHandler
2018-07-29 19:19:26,928  INFO EventsManagerImpl:207     > org.matsim.api.core.v01.events.LinkEnterEvent
2018-07-29 19:19:26,929  INFO EventsManagerImpl:148   org.matsim.core.api.experimental.events.handler.TeleportationArrivalEventHandler
2018-07-29 19:19:26,929  INFO EventsManagerImpl:207     > org.matsim.core.api.experimental.events.TeleportationArrivalEvent
2018-07-29 19:19:26,929  INFO EventsManagerImpl:148   org.matsim.api.core.v01.events.handler.TransitDriverStartsEventHandler
2018-07-29 19:19:26,929  INFO EventsManagerImpl:207     > org.matsim.api.core.v01.events.TransitDriverStartsEvent
2018-07-29 19:19:26,929  INFO EventsManagerImpl:148   org.matsim.api.core.v01.events.handler.PersonEntersVehicleEventHandler
2018-07-29 19:19:26,929  INFO EventsManagerImpl:207     > org.matsim.api.core.v01.events.PersonEntersVehicleEvent
2018-07-29 19:19:26,929  INFO EventsManagerImpl:148   org.matsim.core.api.experimental.events.handler.VehicleArrivesAtFacilityEventHandler
2018-07-29 19:19:26,930  INFO EventsManagerImpl:207     > org.matsim.core.api.experimental.events.VehicleArrivesAtFacilityEvent
2018-07-29 19:19:26,930  INFO EventsManagerImpl:148   org.matsim.api.core.v01.events.handler.VehicleEntersTrafficEventHandler
2018-07-29 19:19:26,930  INFO EventsManagerImpl:207     > org.matsim.api.core.v01.events.VehicleEntersTrafficEvent
2018-07-29 19:19:26,930  INFO EventsManagerImpl:148   org.matsim.api.core.v01.events.handler.VehicleLeavesTrafficEventHandler
2018-07-29 19:19:26,930  INFO EventsManagerImpl:207     > org.matsim.api.core.v01.events.VehicleLeavesTrafficEvent
2018-07-29 19:19:26,930  INFO EventsManagerImpl:156 
2018-07-29 19:19:26,930  INFO EventsManagerImpl:144 adding Event-Handler: org.matsim.core.scoring.EventsToLegs
2018-07-29 19:19:26,931  INFO EventsManagerImpl:148   org.matsim.api.core.v01.events.handler.PersonDepartureEventHandler
2018-07-29 19:19:26,931  INFO EventsManagerImpl:207     > org.matsim.api.core.v01.events.PersonDepartureEvent
2018-07-29 19:19:26,931  INFO EventsManagerImpl:148   org.matsim.api.core.v01.events.handler.PersonArrivalEventHandler
2018-07-29 19:19:26,931  INFO EventsManagerImpl:207     > org.matsim.api.core.v01.events.PersonArrivalEvent
2018-07-29 19:19:26,931  INFO EventsManagerImpl:148   org.matsim.api.core.v01.events.handler.LinkLeaveEventHandler
2018-07-29 19:19:26,931  INFO EventsManagerImpl:207     > org.matsim.api.core.v01.events.LinkLeaveEvent
2018-07-29 19:19:26,931  INFO EventsManagerImpl:148   org.matsim.api.core.v01.events.handler.LinkEnterEventHandler
2018-07-29 19:19:26,932  INFO EventsManagerImpl:207     > org.matsim.api.core.v01.events.LinkEnterEvent
2018-07-29 19:19:26,932  INFO EventsManagerImpl:148   org.matsim.core.api.experimental.events.handler.TeleportationArrivalEventHandler
2018-07-29 19:19:26,932  INFO EventsManagerImpl:207     > org.matsim.core.api.experimental.events.TeleportationArrivalEvent
2018-07-29 19:19:26,932  INFO EventsManagerImpl:148   org.matsim.api.core.v01.events.handler.TransitDriverStartsEventHandler
2018-07-29 19:19:26,932  INFO EventsManagerImpl:207     > org.matsim.api.core.v01.events.TransitDriverStartsEvent
2018-07-29 19:19:26,932  INFO EventsManagerImpl:148   org.matsim.api.core.v01.events.handler.PersonEntersVehicleEventHandler
2018-07-29 19:19:26,933  INFO EventsManagerImpl:207     > org.matsim.api.core.v01.events.PersonEntersVehicleEvent
2018-07-29 19:19:26,933  INFO EventsManagerImpl:148   org.matsim.core.api.experimental.events.handler.VehicleArrivesAtFacilityEventHandler
2018-07-29 19:19:26,933  INFO EventsManagerImpl:207     > org.matsim.core.api.experimental.events.VehicleArrivesAtFacilityEvent
2018-07-29 19:19:26,933  INFO EventsManagerImpl:148   org.matsim.api.core.v01.events.handler.VehicleEntersTrafficEventHandler
2018-07-29 19:19:26,933  INFO EventsManagerImpl:207     > org.matsim.api.core.v01.events.VehicleEntersTrafficEvent
2018-07-29 19:19:26,933  INFO EventsManagerImpl:148   org.matsim.api.core.v01.events.handler.VehicleLeavesTrafficEventHandler
2018-07-29 19:19:26,933  INFO EventsManagerImpl:207     > org.matsim.api.core.v01.events.VehicleLeavesTrafficEvent
2018-07-29 19:19:26,934  INFO EventsManagerImpl:156 
2018-07-29 19:19:26,934  INFO EventsManagerImpl:144 adding Event-Handler: org.matsim.core.scoring.ScoringFunctionsForPopulation
2018-07-29 19:19:26,934  INFO EventsManagerImpl:148   org.matsim.core.events.handler.BasicEventHandler
2018-07-29 19:19:26,934  INFO EventsManagerImpl:207     > org.matsim.api.core.v01.events.Event
2018-07-29 19:19:26,934  INFO EventsManagerImpl:148   org.matsim.core.scoring.EventsToLegs$LegHandler
2018-07-29 19:19:26,935  INFO EventsManagerImpl:148   org.matsim.core.scoring.EventsToActivities$ActivityHandler
2018-07-29 19:19:26,935  INFO EventsManagerImpl:156 
2018-07-29 19:19:26,935  INFO EventsManagerImpl:144 adding Event-Handler: org.matsim.core.scoring.ScoringFunctionsForPopulation
2018-07-29 19:19:26,935  INFO EventsManagerImpl:148   org.matsim.core.events.handler.BasicEventHandler
2018-07-29 19:19:26,935  INFO EventsManagerImpl:207     > org.matsim.api.core.v01.events.Event
2018-07-29 19:19:26,935  INFO EventsManagerImpl:148   org.matsim.core.scoring.EventsToLegs$LegHandler
2018-07-29 19:19:26,935  INFO EventsManagerImpl:148   org.matsim.core.scoring.EventsToActivities$ActivityHandler
2018-07-29 19:19:26,935  INFO EventsManagerImpl:156 
2018-07-29 19:19:26,936  INFO EventsManagerImpl:144 adding Event-Handler: org.matsim.core.events.algorithms.Vehicle2DriverEventHandler
2018-07-29 19:19:26,936  INFO EventsManagerImpl:148   org.matsim.api.core.v01.events.handler.VehicleEntersTrafficEventHandler
2018-07-29 19:19:26,936  INFO EventsManagerImpl:207     > org.matsim.api.core.v01.events.VehicleEntersTrafficEvent
2018-07-29 19:19:26,936  INFO EventsManagerImpl:148   org.matsim.api.core.v01.events.handler.VehicleLeavesTrafficEventHandler
2018-07-29 19:19:26,936  INFO EventsManagerImpl:207     > org.matsim.api.core.v01.events.VehicleLeavesTrafficEvent
2018-07-29 19:19:26,936  INFO EventsManagerImpl:156 
2018-07-29 19:19:26,936  INFO EventsManagerImpl:144 adding Event-Handler: org.matsim.core.events.algorithms.Vehicle2DriverEventHandler
2018-07-29 19:19:26,937  INFO EventsManagerImpl:148   org.matsim.api.core.v01.events.handler.VehicleEntersTrafficEventHandler
2018-07-29 19:19:26,937  INFO EventsManagerImpl:207     > org.matsim.api.core.v01.events.VehicleEntersTrafficEvent
2018-07-29 19:19:26,937  INFO EventsManagerImpl:148   org.matsim.api.core.v01.events.handler.VehicleLeavesTrafficEventHandler
2018-07-29 19:19:26,937  INFO EventsManagerImpl:207     > org.matsim.api.core.v01.events.VehicleLeavesTrafficEvent
2018-07-29 19:19:26,937  INFO EventsManagerImpl:156 
2018-07-29 19:19:26,938  INFO CalcLinkStats:151  resetting `count' to zero.  This info is here since we want to check when this is happening during normal simulation runs.  kai, jan'11
2018-07-29 19:19:26,951  INFO EventsManagerImpl:144 adding Event-Handler: org.matsim.analysis.VolumesAnalyzer
2018-07-29 19:19:26,951  INFO EventsManagerImpl:148   org.matsim.api.core.v01.events.handler.LinkLeaveEventHandler
2018-07-29 19:19:26,952  INFO EventsManagerImpl:207     > org.matsim.api.core.v01.events.LinkLeaveEvent
2018-07-29 19:19:26,952  INFO EventsManagerImpl:148   org.matsim.api.core.v01.events.handler.VehicleEntersTrafficEventHandler
2018-07-29 19:19:26,952  INFO EventsManagerImpl:207     > org.matsim.api.core.v01.events.VehicleEntersTrafficEvent
2018-07-29 19:19:26,952  INFO EventsManagerImpl:156 
2018-07-29 19:19:26,952  INFO EventsManagerImpl:144 adding Event-Handler: org.matsim.analysis.VolumesAnalyzer
2018-07-29 19:19:26,952  INFO EventsManagerImpl:148   org.matsim.api.core.v01.events.handler.LinkLeaveEventHandler
2018-07-29 19:19:26,952  INFO EventsManagerImpl:207     > org.matsim.api.core.v01.events.LinkLeaveEvent
2018-07-29 19:19:26,953  INFO EventsManagerImpl:148   org.matsim.api.core.v01.events.handler.VehicleEntersTrafficEventHandler
2018-07-29 19:19:26,953  INFO EventsManagerImpl:207     > org.matsim.api.core.v01.events.VehicleEntersTrafficEvent
2018-07-29 19:19:26,953  INFO EventsManagerImpl:156 
2018-07-29 19:19:26,953  INFO EventsManagerImpl:144 adding Event-Handler: org.matsim.analysis.LegHistogram
2018-07-29 19:19:26,953  INFO EventsManagerImpl:148   org.matsim.api.core.v01.events.handler.PersonDepartureEventHandler
2018-07-29 19:19:26,953  INFO EventsManagerImpl:207     > org.matsim.api.core.v01.events.PersonDepartureEvent
2018-07-29 19:19:26,954  INFO EventsManagerImpl:148   org.matsim.api.core.v01.events.handler.PersonArrivalEventHandler
2018-07-29 19:19:26,954  INFO EventsManagerImpl:207     > org.matsim.api.core.v01.events.PersonArrivalEvent
2018-07-29 19:19:26,954  INFO EventsManagerImpl:148   org.matsim.api.core.v01.events.handler.PersonStuckEventHandler
2018-07-29 19:19:26,954  INFO EventsManagerImpl:207     > org.matsim.api.core.v01.events.PersonStuckEvent
2018-07-29 19:19:26,954  INFO EventsManagerImpl:156 
2018-07-29 19:19:26,954  INFO EventsManagerImpl:144 adding Event-Handler: org.matsim.analysis.LegHistogram
2018-07-29 19:19:26,954  INFO EventsManagerImpl:148   org.matsim.api.core.v01.events.handler.PersonDepartureEventHandler
2018-07-29 19:19:26,954  INFO EventsManagerImpl:207     > org.matsim.api.core.v01.events.PersonDepartureEvent
2018-07-29 19:19:26,955  INFO EventsManagerImpl:148   org.matsim.api.core.v01.events.handler.PersonArrivalEventHandler
2018-07-29 19:19:26,955  INFO EventsManagerImpl:207     > org.matsim.api.core.v01.events.PersonArrivalEvent
2018-07-29 19:19:26,955  INFO EventsManagerImpl:148   org.matsim.api.core.v01.events.handler.PersonStuckEventHandler
2018-07-29 19:19:26,955  INFO EventsManagerImpl:207     > org.matsim.api.core.v01.events.PersonStuckEvent
2018-07-29 19:19:26,955  INFO EventsManagerImpl:156 
2018-07-29 19:19:26,955  INFO EventsManagerImpl:144 adding Event-Handler: org.matsim.analysis.CalcLegTimes
2018-07-29 19:19:26,955  INFO EventsManagerImpl:148   org.matsim.api.core.v01.events.handler.PersonDepartureEventHandler
2018-07-29 19:19:26,956  INFO EventsManagerImpl:207     > org.matsim.api.core.v01.events.PersonDepartureEvent
2018-07-29 19:19:26,956  INFO EventsManagerImpl:148   org.matsim.api.core.v01.events.handler.PersonArrivalEventHandler
2018-07-29 19:19:26,956  INFO EventsManagerImpl:207     > org.matsim.api.core.v01.events.PersonArrivalEvent
2018-07-29 19:19:26,956  INFO EventsManagerImpl:148   org.matsim.api.core.v01.events.handler.ActivityEndEventHandler
2018-07-29 19:19:26,956  INFO EventsManagerImpl:207     > org.matsim.api.core.v01.events.ActivityEndEvent
2018-07-29 19:19:26,956  INFO EventsManagerImpl:148   org.matsim.api.core.v01.events.handler.ActivityStartEventHandler
2018-07-29 19:19:26,956  INFO EventsManagerImpl:207     > org.matsim.api.core.v01.events.ActivityStartEvent
2018-07-29 19:19:26,957  INFO EventsManagerImpl:156 
2018-07-29 19:19:26,957  INFO EventsManagerImpl:144 adding Event-Handler: org.matsim.analysis.CalcLegTimes
2018-07-29 19:19:26,957  INFO EventsManagerImpl:148   org.matsim.api.core.v01.events.handler.PersonDepartureEventHandler
2018-07-29 19:19:26,957  INFO EventsManagerImpl:207     > org.matsim.api.core.v01.events.PersonDepartureEvent
2018-07-29 19:19:26,957  INFO EventsManagerImpl:148   org.matsim.api.core.v01.events.handler.PersonArrivalEventHandler
2018-07-29 19:19:26,957  INFO EventsManagerImpl:207     > org.matsim.api.core.v01.events.PersonArrivalEvent
2018-07-29 19:19:26,957  INFO EventsManagerImpl:148   org.matsim.api.core.v01.events.handler.ActivityEndEventHandler
2018-07-29 19:19:26,958  INFO EventsManagerImpl:207     > org.matsim.api.core.v01.events.ActivityEndEvent
2018-07-29 19:19:26,958  INFO EventsManagerImpl:148   org.matsim.api.core.v01.events.handler.ActivityStartEventHandler
2018-07-29 19:19:26,958  INFO EventsManagerImpl:207     > org.matsim.api.core.v01.events.ActivityStartEvent
2018-07-29 19:19:26,958  INFO EventsManagerImpl:156 
2018-07-29 19:19:26,959  INFO AbstractController:52 Used Controler-Class: org.matsim.core.controler.NewControler
2018-07-29 19:19:26,959  INFO Config:535 ConfigConsistencyChecker with runtime type=class org.matsim.core.config.consistency.ConfigConsistencyCheckerImpl was already added; not adding it a second time
2018-07-29 19:19:26,959  INFO EventsManagerImpl:144 adding Event-Handler: org.matsim.contrib.decongestion.tollSetting.DecongestionTollingPID
2018-07-29 19:19:26,959  INFO EventsManagerImpl:148   org.matsim.contrib.decongestion.tollSetting.DecongestionTollSetting
2018-07-29 19:19:26,959  INFO EventsManagerImpl:148   org.matsim.api.core.v01.events.handler.LinkLeaveEventHandler
2018-07-29 19:19:26,960  INFO EventsManagerImpl:207     > org.matsim.api.core.v01.events.LinkLeaveEvent
2018-07-29 19:19:26,960  INFO EventsManagerImpl:156 
2018-07-29 19:19:26,960  INFO EventsManagerImpl:144 adding Event-Handler: org.matsim.contrib.decongestion.tollSetting.DecongestionTollingPID
2018-07-29 19:19:26,960  INFO EventsManagerImpl:148   org.matsim.contrib.decongestion.tollSetting.DecongestionTollSetting
2018-07-29 19:19:26,960  INFO EventsManagerImpl:148   org.matsim.api.core.v01.events.handler.LinkLeaveEventHandler
2018-07-29 19:19:26,960  INFO EventsManagerImpl:207     > org.matsim.api.core.v01.events.LinkLeaveEvent
2018-07-29 19:19:26,960  INFO EventsManagerImpl:156 
2018-07-29 19:19:26,960  INFO EventsManagerImpl:144 adding Event-Handler: org.matsim.contrib.decongestion.handler.IntervalBasedTollingAll
2018-07-29 19:19:26,960  INFO EventsManagerImpl:148   org.matsim.api.core.v01.events.handler.LinkLeaveEventHandler
2018-07-29 19:19:26,960  INFO EventsManagerImpl:207     > org.matsim.api.core.v01.events.LinkLeaveEvent
2018-07-29 19:19:26,961  INFO EventsManagerImpl:148   org.matsim.contrib.decongestion.handler.IntervalBasedTolling
2018-07-29 19:19:26,961  INFO EventsManagerImpl:156 
2018-07-29 19:19:26,961  INFO EventsManagerImpl:144 adding Event-Handler: org.matsim.contrib.decongestion.handler.IntervalBasedTollingAll
2018-07-29 19:19:26,961  INFO EventsManagerImpl:148   org.matsim.api.core.v01.events.handler.LinkLeaveEventHandler
2018-07-29 19:19:26,961  INFO EventsManagerImpl:207     > org.matsim.api.core.v01.events.LinkLeaveEvent
2018-07-29 19:19:26,961  INFO EventsManagerImpl:148   org.matsim.contrib.decongestion.handler.IntervalBasedTolling
2018-07-29 19:19:26,961  INFO EventsManagerImpl:156 
2018-07-29 19:19:26,961  INFO EventsManagerImpl:144 adding Event-Handler: org.matsim.contrib.decongestion.handler.DelayAnalysis
2018-07-29 19:19:26,961  INFO EventsManagerImpl:148   org.matsim.api.core.v01.events.handler.LinkEnterEventHandler
2018-07-29 19:19:26,962  INFO EventsManagerImpl:207     > org.matsim.api.core.v01.events.LinkEnterEvent
2018-07-29 19:19:26,962  INFO EventsManagerImpl:148   org.matsim.api.core.v01.events.handler.LinkLeaveEventHandler
2018-07-29 19:19:26,962  INFO EventsManagerImpl:207     > org.matsim.api.core.v01.events.LinkLeaveEvent
2018-07-29 19:19:26,962  INFO EventsManagerImpl:148   org.matsim.api.core.v01.events.handler.PersonArrivalEventHandler
2018-07-29 19:19:26,962  INFO EventsManagerImpl:207     > org.matsim.api.core.v01.events.PersonArrivalEvent
2018-07-29 19:19:26,962  INFO EventsManagerImpl:156 
2018-07-29 19:19:26,962  INFO EventsManagerImpl:144 adding Event-Handler: org.matsim.contrib.decongestion.handler.DelayAnalysis
2018-07-29 19:19:26,962  INFO EventsManagerImpl:148   org.matsim.api.core.v01.events.handler.LinkEnterEventHandler
2018-07-29 19:19:26,962  INFO EventsManagerImpl:207     > org.matsim.api.core.v01.events.LinkEnterEvent
2018-07-29 19:19:26,962  INFO EventsManagerImpl:148   org.matsim.api.core.v01.events.handler.LinkLeaveEventHandler
2018-07-29 19:19:26,963  INFO EventsManagerImpl:207     > org.matsim.api.core.v01.events.LinkLeaveEvent
2018-07-29 19:19:26,963  INFO EventsManagerImpl:148   org.matsim.api.core.v01.events.handler.PersonArrivalEventHandler
2018-07-29 19:19:26,963  INFO EventsManagerImpl:207     > org.matsim.api.core.v01.events.PersonArrivalEvent
2018-07-29 19:19:26,963  INFO EventsManagerImpl:156 
2018-07-29 19:19:26,963  INFO EventsManagerImpl:144 adding Event-Handler: org.matsim.contrib.decongestion.handler.PersonVehicleTracker
2018-07-29 19:19:26,963  INFO EventsManagerImpl:148   org.matsim.api.core.v01.events.handler.PersonEntersVehicleEventHandler
2018-07-29 19:19:26,963  INFO EventsManagerImpl:207     > org.matsim.api.core.v01.events.PersonEntersVehicleEvent
2018-07-29 19:19:26,963  INFO EventsManagerImpl:156 
2018-07-29 19:19:26,963  INFO EventsManagerImpl:144 adding Event-Handler: org.matsim.contrib.decongestion.handler.PersonVehicleTracker
2018-07-29 19:19:26,963  INFO EventsManagerImpl:148   org.matsim.api.core.v01.events.handler.PersonEntersVehicleEventHandler
2018-07-29 19:19:26,964  INFO EventsManagerImpl:207     > org.matsim.api.core.v01.events.PersonEntersVehicleEvent
2018-07-29 19:19:26,964  INFO EventsManagerImpl:156 
2018-07-29 19:19:26,964  INFO Injector:81 === printInjector start ===
2018-07-29 19:19:26,964  INFO Injector:85 org.matsim.core.scoring.ScoringFunctionFactory 
2018-07-29 19:19:26,964  INFO Injector:86   --> provider: FactoryProxy{key=Key[type=org.matsim.core.scoring.ScoringFunctionFactory, annotation=[none]], provider=com.google.inject.internal.ConstructorBindingImpl$Factory@2fb36d8d}
2018-07-29 19:19:26,964  INFO Injector:87   --> source: femproto.run.RunMatsim4FloodEvacuation$2.install(RunMatsim4FloodEvacuation.java:175)
2018-07-29 19:19:26,964  INFO Injector:89   --> scope: Scopes.NO_SCOPE
2018-07-29 19:19:26,964  INFO Injector:92   --> target: Key[type=femproto.run.NonEvacLinkPenalizingScoringFunctionFactory, annotation=[none]]
2018-07-29 19:19:26,964  INFO Injector:94   ==full==> LinkedKeyBinding{key=Key[type=org.matsim.core.scoring.ScoringFunctionFactory, annotation=[none]], source=femproto.run.RunMatsim4FloodEvacuation$2.install(RunMatsim4FloodEvacuation.java:175), scope=Scopes.NO_SCOPE, target=Key[type=femproto.run.NonEvacLinkPenalizingScoringFunctionFactory, annotation=[none]]}
2018-07-29 19:19:26,964  INFO Injector:96 
2018-07-29 19:19:26,964  INFO Injector:85 org.matsim.core.controler.PrepareForSim 
2018-07-29 19:19:26,964  INFO Injector:86   --> provider: of(femproto.run.RunMatsim4FloodEvacuation$2$1@4867e76b)
2018-07-29 19:19:26,965  INFO Injector:87   --> source: femproto.run.RunMatsim4FloodEvacuation$2.install(RunMatsim4FloodEvacuation.java:180)
2018-07-29 19:19:26,965  INFO Injector:89   --> scope: eager singleton
2018-07-29 19:19:26,965  INFO Injector:94   ==full==> InstanceBinding{key=Key[type=org.matsim.core.controler.PrepareForSim, annotation=[none]], source=femproto.run.RunMatsim4FloodEvacuation$2.install(RunMatsim4FloodEvacuation.java:180), instance=femproto.run.RunMatsim4FloodEvacuation$2$1@4867e76b}
2018-07-29 19:19:26,965  INFO Injector:96 
2018-07-29 19:19:26,965  INFO Injector:85 org.matsim.core.controler.listener.ControlerListener @com.google.inject.multibindings.Element(setName=,uniqueId=248, type=MULTIBINDER, keyType=)
2018-07-29 19:19:26,965  INFO Injector:86   --> provider: FactoryProxy{key=Key[type=org.matsim.core.controler.listener.ControlerListener, annotation=@com.google.inject.multibindings.Element(setName=,uniqueId=248, type=MULTIBINDER, keyType=)], provider=com.google.inject.internal.ConstructorBindingImpl$Factory@51a6af38}
2018-07-29 19:19:26,965  INFO Injector:87   --> source: femproto.run.RunMatsim4FloodEvacuation$1.install(RunMatsim4FloodEvacuation.java:129)
2018-07-29 19:19:26,965  INFO Injector:89   --> scope: Scopes.NO_SCOPE
2018-07-29 19:19:26,965  INFO Injector:92   --> target: Key[type=org.matsim.contrib.analysis.kai.KaiAnalysisListener, annotation=[none]]
2018-07-29 19:19:26,965  INFO Injector:94   ==full==> LinkedKeyBinding{key=Key[type=org.matsim.core.controler.listener.ControlerListener, annotation=@com.google.inject.multibindings.Element(setName=,uniqueId=248, type=MULTIBINDER, keyType=)], source=femproto.run.RunMatsim4FloodEvacuation$1.install(RunMatsim4FloodEvacuation.java:129), scope=Scopes.NO_SCOPE, target=Key[type=org.matsim.contrib.analysis.kai.KaiAnalysisListener, annotation=[none]]}
2018-07-29 19:19:26,965  INFO Injector:96 
2018-07-29 19:19:26,965  INFO Injector:85 org.matsim.core.controler.listener.ControlerListener @com.google.inject.multibindings.Element(setName=,uniqueId=249, type=MULTIBINDER, keyType=)
2018-07-29 19:19:26,965  INFO Injector:86   --> provider: FactoryProxy{key=Key[type=org.matsim.core.controler.listener.ControlerListener, annotation=@com.google.inject.multibindings.Element(setName=,uniqueId=249, type=MULTIBINDER, keyType=)], provider=com.google.inject.internal.ConstructorBindingImpl$Factory@27bde886[Scopes.SINGLETON]}
2018-07-29 19:19:26,966  INFO Injector:87   --> source: femproto.run.RunMatsim4FloodEvacuation$1.install(RunMatsim4FloodEvacuation.java:130)
2018-07-29 19:19:26,966  INFO Injector:89   --> scope: Scopes.NO_SCOPE
2018-07-29 19:19:26,966  INFO Injector:92   --> target: Key[type=femproto.run.OutputEvents2TravelDiaries, annotation=[none]]
2018-07-29 19:19:26,966  INFO Injector:94   ==full==> LinkedKeyBinding{key=Key[type=org.matsim.core.controler.listener.ControlerListener, annotation=@com.google.inject.multibindings.Element(setName=,uniqueId=249, type=MULTIBINDER, keyType=)], source=femproto.run.RunMatsim4FloodEvacuation$1.install(RunMatsim4FloodEvacuation.java:130), scope=Scopes.NO_SCOPE, target=Key[type=femproto.run.OutputEvents2TravelDiaries, annotation=[none]]}
2018-07-29 19:19:26,966  INFO Injector:96 
2018-07-29 19:19:26,966  INFO Injector:85 org.matsim.core.router.RoutingModule @com.google.inject.name.Named(value=car)
2018-07-29 19:19:26,966  INFO Injector:86   --> provider: org.matsim.core.router.NetworkRoutingProvider@6ba3eee9
2018-07-29 19:19:26,966  INFO Injector:87   --> source: femproto.run.RunMatsim4FloodEvacuation$1.install(RunMatsim4FloodEvacuation.java:139)
2018-07-29 19:19:26,966  INFO Injector:89   --> scope: Scopes.NO_SCOPE
2018-07-29 19:19:26,966  INFO Injector:94   ==full==> ProviderInstanceBinding{key=Key[type=org.matsim.core.router.RoutingModule, annotation=@com.google.inject.name.Named(value=car)], source=femproto.run.RunMatsim4FloodEvacuation$1.install(RunMatsim4FloodEvacuation.java:139), scope=Scopes.NO_SCOPE, provider=org.matsim.core.router.NetworkRoutingProvider@6ba3eee9}
2018-07-29 19:19:26,966  INFO Injector:96 
2018-07-29 19:19:26,966  INFO Injector:85 org.matsim.core.router.costcalculators.TravelDisutilityFactory @com.google.inject.name.Named(value=car)
2018-07-29 19:19:26,966  INFO Injector:86   --> provider: of(femproto.run.FEMPreferEmergencyLinksTravelDisutility$Factory@d2eddc2)
2018-07-29 19:19:26,966  INFO Injector:87   --> source: femproto.run.RunMatsim4FloodEvacuation$1.install(RunMatsim4FloodEvacuation.java:158)
2018-07-29 19:19:26,966  INFO Injector:89   --> scope: eager singleton
2018-07-29 19:19:26,967  INFO Injector:94   ==full==> InstanceBinding{key=Key[type=org.matsim.core.router.costcalculators.TravelDisutilityFactory, annotation=@com.google.inject.name.Named(value=car)], source=femproto.run.RunMatsim4FloodEvacuation$1.install(RunMatsim4FloodEvacuation.java:158), instance=femproto.run.FEMPreferEmergencyLinksTravelDisutility$Factory@d2eddc2}
2018-07-29 19:19:26,967  INFO Injector:96 
2018-07-29 19:19:26,967  INFO Injector:85 org.matsim.contrib.decongestion.tollSetting.DecongestionTollSetting 
2018-07-29 19:19:26,967  INFO Injector:86   --> provider: FactoryProxy{key=Key[type=org.matsim.contrib.decongestion.tollSetting.DecongestionTollSetting, annotation=[none]], provider=com.google.inject.internal.ConstructorBindingImpl$Factory@a15e4fd[Scopes.SINGLETON]}
2018-07-29 19:19:26,967  INFO Injector:87   --> source: org.matsim.contrib.decongestion.DecongestionModule.install(DecongestionModule.java:60)
2018-07-29 19:19:26,967  INFO Injector:89   --> scope: Scopes.NO_SCOPE
2018-07-29 19:19:26,967  INFO Injector:92   --> target: Key[type=org.matsim.contrib.decongestion.tollSetting.DecongestionTollingPID, annotation=[none]]
2018-07-29 19:19:26,967  INFO Injector:94   ==full==> LinkedKeyBinding{key=Key[type=org.matsim.contrib.decongestion.tollSetting.DecongestionTollSetting, annotation=[none]], source=org.matsim.contrib.decongestion.DecongestionModule.install(DecongestionModule.java:60), scope=Scopes.NO_SCOPE, target=Key[type=org.matsim.contrib.decongestion.tollSetting.DecongestionTollingPID, annotation=[none]]}
2018-07-29 19:19:26,967  INFO Injector:96 
2018-07-29 19:19:26,967  INFO Injector:85 org.matsim.core.events.handler.EventHandler @com.google.inject.multibindings.Element(setName=,uniqueId=243, type=MULTIBINDER, keyType=)
2018-07-29 19:19:26,967  INFO Injector:86   --> provider: FactoryProxy{key=Key[type=org.matsim.core.events.handler.EventHandler, annotation=@com.google.inject.multibindings.Element(setName=,uniqueId=243, type=MULTIBINDER, keyType=)], provider=com.google.inject.internal.ConstructorBindingImpl$Factory@a15e4fd[Scopes.SINGLETON]}
2018-07-29 19:19:26,967  INFO Injector:87   --> source: org.matsim.contrib.decongestion.DecongestionModule.install(DecongestionModule.java:61)
2018-07-29 19:19:26,967  INFO Injector:89   --> scope: Scopes.NO_SCOPE
2018-07-29 19:19:26,968  INFO Injector:92   --> target: Key[type=org.matsim.contrib.decongestion.tollSetting.DecongestionTollingPID, annotation=[none]]
2018-07-29 19:19:26,968  INFO Injector:94   ==full==> LinkedKeyBinding{key=Key[type=org.matsim.core.events.handler.EventHandler, annotation=@com.google.inject.multibindings.Element(setName=,uniqueId=243, type=MULTIBINDER, keyType=)], source=org.matsim.contrib.decongestion.DecongestionModule.install(DecongestionModule.java:61), scope=Scopes.NO_SCOPE, target=Key[type=org.matsim.contrib.decongestion.tollSetting.DecongestionTollingPID, annotation=[none]]}
2018-07-29 19:19:26,968  INFO Injector:96 
2018-07-29 19:19:26,968  INFO Injector:85 org.matsim.contrib.decongestion.handler.IntervalBasedTolling 
2018-07-29 19:19:26,968  INFO Injector:86   --> provider: FactoryProxy{key=Key[type=org.matsim.contrib.decongestion.handler.IntervalBasedTolling, annotation=[none]], provider=com.google.inject.internal.ConstructorBindingImpl$Factory@71e740c6[Scopes.SINGLETON]}
2018-07-29 19:19:26,968  INFO Injector:87   --> source: org.matsim.contrib.decongestion.DecongestionModule.install(DecongestionModule.java:79)
2018-07-29 19:19:26,968  INFO Injector:89   --> scope: Scopes.NO_SCOPE
2018-07-29 19:19:26,968  INFO Injector:92   --> target: Key[type=org.matsim.contrib.decongestion.handler.IntervalBasedTollingAll, annotation=[none]]
2018-07-29 19:19:26,968  INFO Injector:94   ==full==> LinkedKeyBinding{key=Key[type=org.matsim.contrib.decongestion.handler.IntervalBasedTolling, annotation=[none]], source=org.matsim.contrib.decongestion.DecongestionModule.install(DecongestionModule.java:79), scope=Scopes.NO_SCOPE, target=Key[type=org.matsim.contrib.decongestion.handler.IntervalBasedTollingAll, annotation=[none]]}
2018-07-29 19:19:26,968  INFO Injector:96 
2018-07-29 19:19:26,968  INFO Injector:85 org.matsim.core.events.handler.EventHandler @com.google.inject.multibindings.Element(setName=,uniqueId=244, type=MULTIBINDER, keyType=)
2018-07-29 19:19:26,968  INFO Injector:86   --> provider: FactoryProxy{key=Key[type=org.matsim.core.events.handler.EventHandler, annotation=@com.google.inject.multibindings.Element(setName=,uniqueId=244, type=MULTIBINDER, keyType=)], provider=com.google.inject.internal.ConstructorBindingImpl$Factory@71e740c6[Scopes.SINGLETON]}
2018-07-29 19:19:26,968  INFO Injector:87   --> source: org.matsim.contrib.decongestion.DecongestionModule.install(DecongestionModule.java:80)
2018-07-29 19:19:26,969  INFO Injector:89   --> scope: Scopes.NO_SCOPE
2018-07-29 19:19:26,969  INFO Injector:92   --> target: Key[type=org.matsim.contrib.decongestion.handler.IntervalBasedTollingAll, annotation=[none]]
2018-07-29 19:19:26,969  INFO Injector:94   ==full==> LinkedKeyBinding{key=Key[type=org.matsim.core.events.handler.EventHandler, annotation=@com.google.inject.multibindings.Element(setName=,uniqueId=244, type=MULTIBINDER, keyType=)], source=org.matsim.contrib.decongestion.DecongestionModule.install(DecongestionModule.java:80), scope=Scopes.NO_SCOPE, target=Key[type=org.matsim.contrib.decongestion.handler.IntervalBasedTollingAll, annotation=[none]]}
2018-07-29 19:19:26,969  INFO Injector:96 
2018-07-29 19:19:26,969  INFO Injector:85 org.matsim.core.events.handler.EventHandler @com.google.inject.multibindings.Element(setName=,uniqueId=245, type=MULTIBINDER, keyType=)
2018-07-29 19:19:26,969  INFO Injector:86   --> provider: FactoryProxy{key=Key[type=org.matsim.core.events.handler.EventHandler, annotation=@com.google.inject.multibindings.Element(setName=,uniqueId=245, type=MULTIBINDER, keyType=)], provider=com.google.inject.internal.ConstructorBindingImpl$Factory@7b4e5982[Scopes.SINGLETON]}
2018-07-29 19:19:26,969  INFO Injector:87   --> source: org.matsim.contrib.decongestion.DecongestionModule.install(DecongestionModule.java:83)
2018-07-29 19:19:26,969  INFO Injector:89   --> scope: Scopes.NO_SCOPE
2018-07-29 19:19:26,969  INFO Injector:92   --> target: Key[type=org.matsim.contrib.decongestion.handler.DelayAnalysis, annotation=[none]]
2018-07-29 19:19:26,969  INFO Injector:94   ==full==> LinkedKeyBinding{key=Key[type=org.matsim.core.events.handler.EventHandler, annotation=@com.google.inject.multibindings.Element(setName=,uniqueId=245, type=MULTIBINDER, keyType=)], source=org.matsim.contrib.decongestion.DecongestionModule.install(DecongestionModule.java:83), scope=Scopes.NO_SCOPE, target=Key[type=org.matsim.contrib.decongestion.handler.DelayAnalysis, annotation=[none]]}
2018-07-29 19:19:26,969  INFO Injector:96 
2018-07-29 19:19:26,969  INFO Injector:85 org.matsim.core.events.handler.EventHandler @com.google.inject.multibindings.Element(setName=,uniqueId=246, type=MULTIBINDER, keyType=)
2018-07-29 19:19:26,969  INFO Injector:86   --> provider: FactoryProxy{key=Key[type=org.matsim.core.events.handler.EventHandler, annotation=@com.google.inject.multibindings.Element(setName=,uniqueId=246, type=MULTIBINDER, keyType=)], provider=com.google.inject.internal.ConstructorBindingImpl$Factory@45b63133}[Scopes.SINGLETON]
2018-07-29 19:19:26,969  INFO Injector:87   --> source: org.matsim.contrib.decongestion.DecongestionModule.install(DecongestionModule.java:85)
2018-07-29 19:19:26,970  INFO Injector:89   --> scope: eager singleton
2018-07-29 19:19:26,970  INFO Injector:92   --> target: Key[type=org.matsim.contrib.decongestion.handler.PersonVehicleTracker, annotation=[none]]
2018-07-29 19:19:26,970  INFO Injector:94   ==full==> LinkedKeyBinding{key=Key[type=org.matsim.core.events.handler.EventHandler, annotation=@com.google.inject.multibindings.Element(setName=,uniqueId=246, type=MULTIBINDER, keyType=)], source=org.matsim.contrib.decongestion.DecongestionModule.install(DecongestionModule.java:85), scope=eager singleton, target=Key[type=org.matsim.contrib.decongestion.handler.PersonVehicleTracker, annotation=[none]]}
2018-07-29 19:19:26,970  INFO Injector:96 
2018-07-29 19:19:26,970  INFO Injector:85 org.matsim.core.controler.listener.ControlerListener @com.google.inject.multibindings.Element(setName=,uniqueId=247, type=MULTIBINDER, keyType=)
2018-07-29 19:19:26,970  INFO Injector:86   --> provider: FactoryProxy{key=Key[type=org.matsim.core.controler.listener.ControlerListener, annotation=@com.google.inject.multibindings.Element(setName=,uniqueId=247, type=MULTIBINDER, keyType=)], provider=com.google.inject.internal.ConstructorBindingImpl$Factory@441e789e}
2018-07-29 19:19:26,970  INFO Injector:87   --> source: org.matsim.contrib.decongestion.DecongestionModule.install(DecongestionModule.java:87)
2018-07-29 19:19:26,970  INFO Injector:89   --> scope: Scopes.NO_SCOPE
2018-07-29 19:19:26,970  INFO Injector:92   --> target: Key[type=org.matsim.contrib.decongestion.DecongestionControlerListener, annotation=[none]]
2018-07-29 19:19:26,970  INFO Injector:94   ==full==> LinkedKeyBinding{key=Key[type=org.matsim.core.controler.listener.ControlerListener, annotation=@com.google.inject.multibindings.Element(setName=,uniqueId=247, type=MULTIBINDER, keyType=)], source=org.matsim.contrib.decongestion.DecongestionModule.install(DecongestionModule.java:87), scope=Scopes.NO_SCOPE, target=Key[type=org.matsim.contrib.decongestion.DecongestionControlerListener, annotation=[none]]}
2018-07-29 19:19:26,970  INFO Injector:96 
2018-07-29 19:19:26,970  INFO Injector:85 org.matsim.api.core.v01.Scenario 
2018-07-29 19:19:26,970  INFO Injector:86   --> provider: of(org.matsim.core.scenario.MutableScenario@1def2d16)
2018-07-29 19:19:26,970  INFO Injector:87   --> source: org.matsim.core.scenario.ScenarioByInstanceModule.install(ScenarioByInstanceModule.java:31)
2018-07-29 19:19:26,971  INFO Injector:89   --> scope: eager singleton
2018-07-29 19:19:26,971  INFO Injector:94   ==full==> InstanceBinding{key=Key[type=org.matsim.api.core.v01.Scenario, annotation=[none]], source=org.matsim.core.scenario.ScenarioByInstanceModule.install(ScenarioByInstanceModule.java:31), instance=org.matsim.core.scenario.MutableScenario@1def2d16}
2018-07-29 19:19:26,971  INFO Injector:96 
2018-07-29 19:19:26,971  INFO Injector:85 org.matsim.api.core.v01.network.Network 
2018-07-29 19:19:26,971  INFO Injector:86   --> provider: @Provides org.matsim.core.scenario.ScenarioByInstanceModule.provideNetwork(ScenarioByInstanceModule.java:39)
2018-07-29 19:19:26,971  INFO Injector:87   --> source: org.matsim.api.core.v01.network.Network org.matsim.core.scenario.ScenarioByInstanceModule.provideNetwork(org.matsim.api.core.v01.Scenario)
2018-07-29 19:19:26,971  INFO Injector:89   --> scope: Scopes.NO_SCOPE
2018-07-29 19:19:26,971  INFO Injector:94   ==full==> ProviderInstanceBinding{key=Key[type=org.matsim.api.core.v01.network.Network, annotation=[none]], source=org.matsim.api.core.v01.network.Network org.matsim.core.scenario.ScenarioByInstanceModule.provideNetwork(org.matsim.api.core.v01.Scenario), scope=Scopes.NO_SCOPE, provider=@Provides org.matsim.core.scenario.ScenarioByInstanceModule.provideNetwork(ScenarioByInstanceModule.java:39)}
2018-07-29 19:19:26,971  INFO Injector:96 
2018-07-29 19:19:26,971  INFO Injector:85 org.matsim.api.core.v01.population.Population 
2018-07-29 19:19:26,971  INFO Injector:86   --> provider: @Provides org.matsim.core.scenario.ScenarioByInstanceModule.providePopulation(ScenarioByInstanceModule.java:43)
2018-07-29 19:19:26,971  INFO Injector:87   --> source: org.matsim.api.core.v01.population.Population org.matsim.core.scenario.ScenarioByInstanceModule.providePopulation(org.matsim.api.core.v01.Scenario)
2018-07-29 19:19:26,971  INFO Injector:89   --> scope: Scopes.NO_SCOPE
2018-07-29 19:19:26,972  INFO Injector:94   ==full==> ProviderInstanceBinding{key=Key[type=org.matsim.api.core.v01.population.Population, annotation=[none]], source=org.matsim.api.core.v01.population.Population org.matsim.core.scenario.ScenarioByInstanceModule.providePopulation(org.matsim.api.core.v01.Scenario), scope=Scopes.NO_SCOPE, provider=@Provides org.matsim.core.scenario.ScenarioByInstanceModule.providePopulation(ScenarioByInstanceModule.java:43)}
2018-07-29 19:19:26,972  INFO Injector:96 
2018-07-29 19:19:26,972  INFO Injector:85 org.matsim.api.core.v01.population.PopulationFactory 
2018-07-29 19:19:26,972  INFO Injector:86   --> provider: @Provides org.matsim.core.scenario.ScenarioByInstanceModule.providePopulationFactory(ScenarioByInstanceModule.java:47)
2018-07-29 19:19:26,972  INFO Injector:87   --> source: org.matsim.api.core.v01.population.PopulationFactory org.matsim.core.scenario.ScenarioByInstanceModule.providePopulationFactory(org.matsim.api.core.v01.population.Population)
2018-07-29 19:19:26,972  INFO Injector:89   --> scope: Scopes.NO_SCOPE
2018-07-29 19:19:26,972  INFO Injector:94   ==full==> ProviderInstanceBinding{key=Key[type=org.matsim.api.core.v01.population.PopulationFactory, annotation=[none]], source=org.matsim.api.core.v01.population.PopulationFactory org.matsim.core.scenario.ScenarioByInstanceModule.providePopulationFactory(org.matsim.api.core.v01.population.Population), scope=Scopes.NO_SCOPE, provider=@Provides org.matsim.core.scenario.ScenarioByInstanceModule.providePopulationFactory(ScenarioByInstanceModule.java:47)}
2018-07-29 19:19:26,972  INFO Injector:96 
2018-07-29 19:19:26,972  INFO Injector:85 org.matsim.facilities.ActivityFacilities 
2018-07-29 19:19:26,972  INFO Injector:86   --> provider: @Provides org.matsim.core.scenario.ScenarioByInstanceModule.provideActivityFacilities(ScenarioByInstanceModule.java:51)
2018-07-29 19:19:26,972  INFO Injector:87   --> source: org.matsim.facilities.ActivityFacilities org.matsim.core.scenario.ScenarioByInstanceModule.provideActivityFacilities(org.matsim.api.core.v01.Scenario)
2018-07-29 19:19:26,972  INFO Injector:89   --> scope: Scopes.NO_SCOPE
2018-07-29 19:19:26,972  INFO Injector:94   ==full==> ProviderInstanceBinding{key=Key[type=org.matsim.facilities.ActivityFacilities, annotation=[none]], source=org.matsim.facilities.ActivityFacilities org.matsim.core.scenario.ScenarioByInstanceModule.provideActivityFacilities(org.matsim.api.core.v01.Scenario), scope=Scopes.NO_SCOPE, provider=@Provides org.matsim.core.scenario.ScenarioByInstanceModule.provideActivityFacilities(ScenarioByInstanceModule.java:51)}
2018-07-29 19:19:26,972  INFO Injector:96 
2018-07-29 19:19:26,973  INFO Injector:85 org.matsim.households.Households 
2018-07-29 19:19:26,973  INFO Injector:86   --> provider: @Provides org.matsim.core.scenario.ScenarioByInstanceModule.provideHouseholds(ScenarioByInstanceModule.java:56)
2018-07-29 19:19:26,973  INFO Injector:87   --> source: org.matsim.households.Households org.matsim.core.scenario.ScenarioByInstanceModule.provideHouseholds(org.matsim.api.core.v01.Scenario)
2018-07-29 19:19:26,973  INFO Injector:89   --> scope: Scopes.NO_SCOPE
2018-07-29 19:19:26,973  INFO Injector:94   ==full==> ProviderInstanceBinding{key=Key[type=org.matsim.households.Households, annotation=[none]], source=org.matsim.households.Households org.matsim.core.scenario.ScenarioByInstanceModule.provideHouseholds(org.matsim.api.core.v01.Scenario), scope=Scopes.NO_SCOPE, provider=@Provides org.matsim.core.scenario.ScenarioByInstanceModule.provideHouseholds(ScenarioByInstanceModule.java:56)}
2018-07-29 19:19:26,973  INFO Injector:96 
2018-07-29 19:19:26,973  INFO Injector:85 org.matsim.vehicles.Vehicles 
2018-07-29 19:19:26,973  INFO Injector:86   --> provider: @Provides org.matsim.core.scenario.ScenarioByInstanceModule.provideVehicles(ScenarioByInstanceModule.java:61)
2018-07-29 19:19:26,973  INFO Injector:87   --> source: org.matsim.vehicles.Vehicles org.matsim.core.scenario.ScenarioByInstanceModule.provideVehicles(org.matsim.api.core.v01.Scenario)
2018-07-29 19:19:26,973  INFO Injector:89   --> scope: Scopes.NO_SCOPE
2018-07-29 19:19:26,973  INFO Injector:94   ==full==> ProviderInstanceBinding{key=Key[type=org.matsim.vehicles.Vehicles, annotation=[none]], source=org.matsim.vehicles.Vehicles org.matsim.core.scenario.ScenarioByInstanceModule.provideVehicles(org.matsim.api.core.v01.Scenario), scope=Scopes.NO_SCOPE, provider=@Provides org.matsim.core.scenario.ScenarioByInstanceModule.provideVehicles(ScenarioByInstanceModule.java:61)}
2018-07-29 19:19:26,973  INFO Injector:96 
2018-07-29 19:19:26,973  INFO Injector:85 org.matsim.lanes.Lanes 
2018-07-29 19:19:26,973  INFO Injector:86   --> provider: @Provides org.matsim.core.scenario.ScenarioByInstanceModule.provideLanes(ScenarioByInstanceModule.java:66)
2018-07-29 19:19:26,973  INFO Injector:87   --> source: org.matsim.lanes.Lanes org.matsim.core.scenario.ScenarioByInstanceModule.provideLanes(org.matsim.api.core.v01.Scenario)
2018-07-29 19:19:26,973  INFO Injector:89   --> scope: Scopes.NO_SCOPE
2018-07-29 19:19:26,974  INFO Injector:94   ==full==> ProviderInstanceBinding{key=Key[type=org.matsim.lanes.Lanes, annotation=[none]], source=org.matsim.lanes.Lanes org.matsim.core.scenario.ScenarioByInstanceModule.provideLanes(org.matsim.api.core.v01.Scenario), scope=Scopes.NO_SCOPE, provider=@Provides org.matsim.core.scenario.ScenarioByInstanceModule.provideLanes(ScenarioByInstanceModule.java:66)}
2018-07-29 19:19:26,974  INFO Injector:96 
2018-07-29 19:19:26,974  INFO Injector:85 org.matsim.core.controler.ControlerI 
2018-07-29 19:19:26,974  INFO Injector:86   --> provider: FactoryProxy{key=Key[type=org.matsim.core.controler.ControlerI, annotation=[none]], provider=com.google.inject.internal.ConstructorBindingImpl$Factory@22112da1}[Scopes.SINGLETON]
2018-07-29 19:19:26,974  INFO Injector:87   --> source: org.matsim.core.controler.NewControlerModule.install(NewControlerModule.java:8)
2018-07-29 19:19:26,974  INFO Injector:89   --> scope: eager singleton
2018-07-29 19:19:26,974  INFO Injector:92   --> target: Key[type=org.matsim.core.controler.NewControler, annotation=[none]]
2018-07-29 19:19:26,974  INFO Injector:94   ==full==> LinkedKeyBinding{key=Key[type=org.matsim.core.controler.ControlerI, annotation=[none]], source=org.matsim.core.controler.NewControlerModule.install(NewControlerModule.java:8), scope=eager singleton, target=Key[type=org.matsim.core.controler.NewControler, annotation=[none]]}
2018-07-29 19:19:26,974  INFO Injector:96 
2018-07-29 19:19:26,974  INFO Injector:85 org.matsim.core.controler.ControlerListenerManager 
2018-07-29 19:19:26,974  INFO Injector:86   --> provider: FactoryProxy{key=Key[type=org.matsim.core.controler.ControlerListenerManager, annotation=[none]], provider=com.google.inject.internal.ConstructorBindingImpl$Factory@30f74965[Scopes.SINGLETON]}
2018-07-29 19:19:26,974  INFO Injector:87   --> source: org.matsim.core.controler.NewControlerModule.install(NewControlerModule.java:10)
2018-07-29 19:19:26,975  INFO Injector:89   --> scope: Scopes.NO_SCOPE
2018-07-29 19:19:26,975  INFO Injector:92   --> target: Key[type=org.matsim.core.controler.ControlerListenerManagerImpl, annotation=[none]]
2018-07-29 19:19:26,975  INFO Injector:94   ==full==> LinkedKeyBinding{key=Key[type=org.matsim.core.controler.ControlerListenerManager, annotation=[none]], source=org.matsim.core.controler.NewControlerModule.install(NewControlerModule.java:10), scope=Scopes.NO_SCOPE, target=Key[type=org.matsim.core.controler.ControlerListenerManagerImpl, annotation=[none]]}
2018-07-29 19:19:26,975  INFO Injector:96 
2018-07-29 19:19:26,975  INFO Injector:85 org.matsim.core.controler.TerminationCriterion 
2018-07-29 19:19:26,975  INFO Injector:86   --> provider: FactoryProxy{key=Key[type=org.matsim.core.controler.TerminationCriterion, annotation=[none]], provider=com.google.inject.internal.ConstructorBindingImpl$Factory@6803b02d}
2018-07-29 19:19:26,975  INFO Injector:87   --> source: org.matsim.core.controler.NewControlerModule.install(NewControlerModule.java:14)
2018-07-29 19:19:26,975  INFO Injector:89   --> scope: Scopes.NO_SCOPE
2018-07-29 19:19:26,975  INFO Injector:92   --> target: Key[type=org.matsim.core.controler.TerminateAtFixedIterationNumber, annotation=[none]]
2018-07-29 19:19:26,975  INFO Injector:94   ==full==> LinkedKeyBinding{key=Key[type=org.matsim.core.controler.TerminationCriterion, annotation=[none]], source=org.matsim.core.controler.NewControlerModule.install(NewControlerModule.java:14), scope=Scopes.NO_SCOPE, target=Key[type=org.matsim.core.controler.TerminateAtFixedIterationNumber, annotation=[none]]}
2018-07-29 19:19:26,975  INFO Injector:96 
2018-07-29 19:19:26,975  INFO Injector:85 org.matsim.core.controler.MatsimServices 
2018-07-29 19:19:26,975  INFO Injector:86   --> provider: FactoryProxy{key=Key[type=org.matsim.core.controler.MatsimServices, annotation=[none]], provider=com.google.inject.internal.ConstructorBindingImpl$Factory@2fa81b23}
2018-07-29 19:19:26,975  INFO Injector:87   --> source: org.matsim.core.controler.NewControlerModule.install(NewControlerModule.java:15)
2018-07-29 19:19:26,976  INFO Injector:89   --> scope: Scopes.NO_SCOPE
2018-07-29 19:19:26,976  INFO Injector:92   --> target: Key[type=org.matsim.core.controler.MatsimServicesImpl, annotation=[none]]
2018-07-29 19:19:26,976  INFO Injector:94   ==full==> LinkedKeyBinding{key=Key[type=org.matsim.core.controler.MatsimServices, annotation=[none]], source=org.matsim.core.controler.NewControlerModule.install(NewControlerModule.java:15), scope=Scopes.NO_SCOPE, target=Key[type=org.matsim.core.controler.MatsimServicesImpl, annotation=[none]]}
2018-07-29 19:19:26,976  INFO Injector:96 
2018-07-29 19:19:26,976  INFO Injector:85 org.matsim.core.controler.PrepareForMobsim 
2018-07-29 19:19:26,976  INFO Injector:86   --> provider: FactoryProxy{key=Key[type=org.matsim.core.controler.PrepareForMobsim, annotation=[none]], provider=com.google.inject.internal.ConstructorBindingImpl$Factory@5bebdfcb}
2018-07-29 19:19:26,976  INFO Injector:87   --> source: org.matsim.core.controler.NewControlerModule.install(NewControlerModule.java:18)
2018-07-29 19:19:26,976  INFO Injector:89   --> scope: Scopes.NO_SCOPE
2018-07-29 19:19:26,976  INFO Injector:92   --> target: Key[type=org.matsim.core.controler.PrepareForMobsimImpl, annotation=[none]]
2018-07-29 19:19:26,976  INFO Injector:94   ==full==> LinkedKeyBinding{key=Key[type=org.matsim.core.controler.PrepareForMobsim, annotation=[none]], source=org.matsim.core.controler.NewControlerModule.install(NewControlerModule.java:18), scope=Scopes.NO_SCOPE, target=Key[type=org.matsim.core.controler.PrepareForMobsimImpl, annotation=[none]]}
2018-07-29 19:19:26,976  INFO Injector:96 
2018-07-29 19:19:26,976  INFO Injector:85 org.matsim.core.controler.corelisteners.PlansScoring 
2018-07-29 19:19:26,976  INFO Injector:86   --> provider: FactoryProxy{key=Key[type=org.matsim.core.controler.corelisteners.PlansScoring, annotation=[none]], provider=com.google.inject.internal.ConstructorBindingImpl$Factory@3411e0d7[Scopes.SINGLETON]}
2018-07-29 19:19:26,976  INFO Injector:87   --> source: org.matsim.core.scoring.PlansScoringModule.install(PlansScoringModule.java:11)
2018-07-29 19:19:26,976  INFO Injector:89   --> scope: Scopes.NO_SCOPE
2018-07-29 19:19:26,977  INFO Injector:92   --> target: Key[type=org.matsim.core.scoring.PlansScoringImpl, annotation=[none]]
2018-07-29 19:19:26,977  INFO Injector:94   ==full==> LinkedKeyBinding{key=Key[type=org.matsim.core.controler.corelisteners.PlansScoring, annotation=[none]], source=org.matsim.core.scoring.PlansScoringModule.install(PlansScoringModule.java:11), scope=Scopes.NO_SCOPE, target=Key[type=org.matsim.core.scoring.PlansScoringImpl, annotation=[none]]}
2018-07-29 19:19:26,977  INFO Injector:96 
2018-07-29 19:19:26,977  INFO Injector:85 org.matsim.core.controler.corelisteners.PlansReplanning 
2018-07-29 19:19:26,977  INFO Injector:86   --> provider: FactoryProxy{key=Key[type=org.matsim.core.controler.corelisteners.PlansReplanning, annotation=[none]], provider=com.google.inject.internal.ConstructorBindingImpl$Factory@20dab85c[Scopes.SINGLETON]}
2018-07-29 19:19:26,977  INFO Injector:87   --> source: org.matsim.core.controler.corelisteners.ControlerDefaultCoreListenersModule.install(ControlerDefaultCoreListenersModule.java:38)
2018-07-29 19:19:26,977  INFO Injector:89   --> scope: Scopes.NO_SCOPE
2018-07-29 19:19:26,977  INFO Injector:92   --> target: Key[type=org.matsim.core.controler.corelisteners.PlansReplanningImpl, annotation=[none]]
2018-07-29 19:19:26,977  INFO Injector:94   ==full==> LinkedKeyBinding{key=Key[type=org.matsim.core.controler.corelisteners.PlansReplanning, annotation=[none]], source=org.matsim.core.controler.corelisteners.ControlerDefaultCoreListenersModule.install(ControlerDefaultCoreListenersModule.java:38), scope=Scopes.NO_SCOPE, target=Key[type=org.matsim.core.controler.corelisteners.PlansReplanningImpl, annotation=[none]]}
2018-07-29 19:19:26,977  INFO Injector:96 
2018-07-29 19:19:26,977  INFO Injector:85 org.matsim.core.controler.corelisteners.PlansDumping 
2018-07-29 19:19:26,977  INFO Injector:86   --> provider: FactoryProxy{key=Key[type=org.matsim.core.controler.corelisteners.PlansDumping, annotation=[none]], provider=com.google.inject.internal.ConstructorBindingImpl$Factory@484f7fad[Scopes.SINGLETON]}
2018-07-29 19:19:26,977  INFO Injector:87   --> source: org.matsim.core.controler.corelisteners.ControlerDefaultCoreListenersModule.install(ControlerDefaultCoreListenersModule.java:39)
2018-07-29 19:19:26,977  INFO Injector:89   --> scope: Scopes.NO_SCOPE
2018-07-29 19:19:26,977  INFO Injector:92   --> target: Key[type=org.matsim.core.controler.corelisteners.PlansDumpingImpl, annotation=[none]]
2018-07-29 19:19:26,978  INFO Injector:94   ==full==> LinkedKeyBinding{key=Key[type=org.matsim.core.controler.corelisteners.PlansDumping, annotation=[none]], source=org.matsim.core.controler.corelisteners.ControlerDefaultCoreListenersModule.install(ControlerDefaultCoreListenersModule.java:39), scope=Scopes.NO_SCOPE, target=Key[type=org.matsim.core.controler.corelisteners.PlansDumpingImpl, annotation=[none]]}
2018-07-29 19:19:26,978  INFO Injector:96 
2018-07-29 19:19:26,978  INFO Injector:85 org.matsim.core.controler.corelisteners.EventsHandling 
2018-07-29 19:19:26,978  INFO Injector:86   --> provider: FactoryProxy{key=Key[type=org.matsim.core.controler.corelisteners.EventsHandling, annotation=[none]], provider=com.google.inject.internal.ConstructorBindingImpl$Factory@4afb2c90[Scopes.SINGLETON]}
2018-07-29 19:19:26,978  INFO Injector:87   --> source: org.matsim.core.controler.corelisteners.ControlerDefaultCoreListenersModule.install(ControlerDefaultCoreListenersModule.java:40)
2018-07-29 19:19:26,978  INFO Injector:89   --> scope: Scopes.NO_SCOPE
2018-07-29 19:19:26,978  INFO Injector:92   --> target: Key[type=org.matsim.core.controler.corelisteners.EventsHandlingImpl, annotation=[none]]
2018-07-29 19:19:26,978  INFO Injector:94   ==full==> LinkedKeyBinding{key=Key[type=org.matsim.core.controler.corelisteners.EventsHandling, annotation=[none]], source=org.matsim.core.controler.corelisteners.ControlerDefaultCoreListenersModule.install(ControlerDefaultCoreListenersModule.java:40), scope=Scopes.NO_SCOPE, target=Key[type=org.matsim.core.controler.corelisteners.EventsHandlingImpl, annotation=[none]]}
2018-07-29 19:19:26,978  INFO Injector:96 
2018-07-29 19:19:26,978  INFO Injector:85 org.matsim.core.controler.corelisteners.DumpDataAtEnd 
2018-07-29 19:19:26,978  INFO Injector:86   --> provider: FactoryProxy{key=Key[type=org.matsim.core.controler.corelisteners.DumpDataAtEnd, annotation=[none]], provider=com.google.inject.internal.ConstructorBindingImpl$Factory@2d7bfb13[Scopes.SINGLETON]}
2018-07-29 19:19:26,978  INFO Injector:87   --> source: org.matsim.core.controler.corelisteners.ControlerDefaultCoreListenersModule.install(ControlerDefaultCoreListenersModule.java:41)
2018-07-29 19:19:26,978  INFO Injector:89   --> scope: Scopes.NO_SCOPE
2018-07-29 19:19:26,978  INFO Injector:92   --> target: Key[type=org.matsim.core.controler.corelisteners.DumpDataAtEndImpl, annotation=[none]]
2018-07-29 19:19:26,978  INFO Injector:94   ==full==> LinkedKeyBinding{key=Key[type=org.matsim.core.controler.corelisteners.DumpDataAtEnd, annotation=[none]], source=org.matsim.core.controler.corelisteners.ControlerDefaultCoreListenersModule.install(ControlerDefaultCoreListenersModule.java:41), scope=Scopes.NO_SCOPE, target=Key[type=org.matsim.core.controler.corelisteners.DumpDataAtEndImpl, annotation=[none]]}
2018-07-29 19:19:26,978  INFO Injector:96 
2018-07-29 19:19:26,979  INFO Injector:85 org.matsim.core.api.experimental.events.EventsManager 
2018-07-29 19:19:26,979  INFO Injector:86   --> provider: FactoryProxy{key=Key[type=org.matsim.core.api.experimental.events.EventsManager, annotation=[none]], provider=com.google.inject.internal.ConstructorBindingImpl$Factory@59be715a}[Scopes.SINGLETON]
2018-07-29 19:19:26,979  INFO Injector:87   --> source: org.matsim.core.events.EventsManagerModule.install(EventsManagerModule.java:23)
2018-07-29 19:19:26,979  INFO Injector:89   --> scope: eager singleton
2018-07-29 19:19:26,979  INFO Injector:92   --> target: Key[type=org.matsim.core.events.SimStepParallelEventsManagerImpl, annotation=[none]]
2018-07-29 19:19:26,979  INFO Injector:94   ==full==> LinkedKeyBinding{key=Key[type=org.matsim.core.api.experimental.events.EventsManager, annotation=[none]], source=org.matsim.core.events.EventsManagerModule.install(EventsManagerModule.java:23), scope=eager singleton, target=Key[type=org.matsim.core.events.SimStepParallelEventsManagerImpl, annotation=[none]]}
2018-07-29 19:19:26,979  INFO Injector:96 
2018-07-29 19:19:26,979  INFO Injector:85 org.matsim.core.mobsim.qsim.components.QSimComponents 
2018-07-29 19:19:26,979  INFO Injector:86   --> provider: @Provides org.matsim.core.mobsim.qsim.components.QSimComponentsModule.provideDefaultQSimComponentsConfiguration(QSimComponentsModule.java:13)[Scopes.SINGLETON]
2018-07-29 19:19:26,979  INFO Injector:87   --> source: public org.matsim.core.mobsim.qsim.components.QSimComponents org.matsim.core.mobsim.qsim.components.QSimComponentsModule.provideDefaultQSimComponentsConfiguration(org.matsim.core.config.Config)
2018-07-29 19:19:26,979  INFO Injector:89   --> scope: Scopes.SINGLETON
2018-07-29 19:19:26,979  INFO Injector:94   ==full==> ProviderInstanceBinding{key=Key[type=org.matsim.core.mobsim.qsim.components.QSimComponents, annotation=[none]], source=public org.matsim.core.mobsim.qsim.components.QSimComponents org.matsim.core.mobsim.qsim.components.QSimComponentsModule.provideDefaultQSimComponentsConfiguration(org.matsim.core.config.Config), scope=Scopes.SINGLETON, provider=@Provides org.matsim.core.mobsim.qsim.components.QSimComponentsModule.provideDefaultQSimComponentsConfiguration(QSimComponentsModule.java:13)}
2018-07-29 19:19:26,979  INFO Injector:96 
2018-07-29 19:19:26,979  INFO Injector:85 org.matsim.core.mobsim.framework.Mobsim 
2018-07-29 19:19:26,979  INFO Injector:86   --> provider: Key[type=org.matsim.core.mobsim.qsim.QSimProvider, annotation=[none]]
2018-07-29 19:19:26,980  INFO Injector:87   --> source: org.matsim.core.mobsim.qsim.QSimModule.configure(QSimModule.java:31)
2018-07-29 19:19:26,980  INFO Injector:89   --> scope: Scopes.NO_SCOPE
2018-07-29 19:19:26,980  INFO Injector:94   ==full==> ProviderKeyBinding{key=Key[type=org.matsim.core.mobsim.framework.Mobsim, annotation=[none]], source=org.matsim.core.mobsim.qsim.QSimModule.configure(QSimModule.java:31), scope=Scopes.NO_SCOPE, provider=Key[type=org.matsim.core.mobsim.qsim.QSimProvider, annotation=[none]]}
2018-07-29 19:19:26,980  INFO Injector:96 
2018-07-29 19:19:26,980  INFO Injector:85 org.matsim.core.mobsim.qsim.qnetsimengine.QNetworkFactory 
2018-07-29 19:19:26,980  INFO Injector:86   --> provider: FactoryProxy{key=Key[type=org.matsim.core.mobsim.qsim.qnetsimengine.QNetworkFactory, annotation=[none]], provider=com.google.inject.internal.ConstructorBindingImpl$Factory@26753687}
2018-07-29 19:19:26,980  INFO Injector:87   --> source: org.matsim.core.mobsim.qsim.QSimModule.configure(QSimModule.java:35)
2018-07-29 19:19:26,980  INFO Injector:89   --> scope: Scopes.NO_SCOPE
2018-07-29 19:19:26,980  INFO Injector:92   --> target: Key[type=org.matsim.core.mobsim.qsim.qnetsimengine.DefaultQNetworkFactory, annotation=[none]]
2018-07-29 19:19:26,980  INFO Injector:94   ==full==> LinkedKeyBinding{key=Key[type=org.matsim.core.mobsim.qsim.qnetsimengine.QNetworkFactory, annotation=[none]], source=org.matsim.core.mobsim.qsim.QSimModule.configure(QSimModule.java:35), scope=Scopes.NO_SCOPE, target=Key[type=org.matsim.core.mobsim.qsim.qnetsimengine.DefaultQNetworkFactory, annotation=[none]]}
2018-07-29 19:19:26,980  INFO Injector:96 
2018-07-29 19:19:26,980  INFO Injector:85 org.matsim.core.router.util.TravelTime @com.google.inject.name.Named(value=car)
2018-07-29 19:19:26,980  INFO Injector:86   --> provider: Key[type=org.matsim.core.trafficmonitoring.ObservedLinkTravelTimes, annotation=[none]]
2018-07-29 19:19:26,980  INFO Injector:87   --> source: org.matsim.core.trafficmonitoring.TravelTimeCalculatorModule.install(TravelTimeCalculatorModule.java:81)
2018-07-29 19:19:26,980  INFO Injector:89   --> scope: Scopes.NO_SCOPE
2018-07-29 19:19:26,981  INFO Injector:94   ==full==> ProviderKeyBinding{key=Key[type=org.matsim.core.router.util.TravelTime, annotation=@com.google.inject.name.Named(value=car)], source=org.matsim.core.trafficmonitoring.TravelTimeCalculatorModule.install(TravelTimeCalculatorModule.java:81), scope=Scopes.NO_SCOPE, provider=Key[type=org.matsim.core.trafficmonitoring.ObservedLinkTravelTimes, annotation=[none]]}
2018-07-29 19:19:26,981  INFO Injector:96 
2018-07-29 19:19:26,981  INFO Injector:85 org.matsim.core.scoring.functions.ScoringParametersForPerson 
2018-07-29 19:19:26,981  INFO Injector:86   --> provider: FactoryProxy{key=Key[type=org.matsim.core.scoring.functions.ScoringParametersForPerson, annotation=[none]], provider=com.google.inject.internal.ConstructorBindingImpl$Factory@18b77ec9}
2018-07-29 19:19:26,981  INFO Injector:87   --> source: org.matsim.core.scoring.functions.CharyparNagelScoringFunctionModule.install(CharyparNagelScoringFunctionModule.java:37)
2018-07-29 19:19:26,981  INFO Injector:89   --> scope: Scopes.NO_SCOPE
2018-07-29 19:19:26,981  INFO Injector:92   --> target: Key[type=org.matsim.core.scoring.functions.SubpopulationScoringParameters, annotation=[none]]
2018-07-29 19:19:26,981  INFO Injector:94   ==full==> LinkedKeyBinding{key=Key[type=org.matsim.core.scoring.functions.ScoringParametersForPerson, annotation=[none]], source=org.matsim.core.scoring.functions.CharyparNagelScoringFunctionModule.install(CharyparNagelScoringFunctionModule.java:37), scope=Scopes.NO_SCOPE, target=Key[type=org.matsim.core.scoring.functions.SubpopulationScoringParameters, annotation=[none]]}
2018-07-29 19:19:26,981  INFO Injector:96 
2018-07-29 19:19:26,981  INFO Injector:85 org.matsim.core.router.MainModeIdentifier 
2018-07-29 19:19:26,981  INFO Injector:86   --> provider: FactoryProxy{key=Key[type=org.matsim.core.router.MainModeIdentifier, annotation=[none]], provider=com.google.inject.internal.ConstructorBindingImpl$Factory@358caf3a}
2018-07-29 19:19:26,981  INFO Injector:87   --> source: org.matsim.core.router.TripRouterModule.install(TripRouterModule.java:44)
2018-07-29 19:19:26,981  INFO Injector:89   --> scope: Scopes.NO_SCOPE
2018-07-29 19:19:26,981  INFO Injector:92   --> target: Key[type=org.matsim.core.router.MainModeIdentifierImpl, annotation=[none]]
2018-07-29 19:19:26,981  INFO Injector:94   ==full==> LinkedKeyBinding{key=Key[type=org.matsim.core.router.MainModeIdentifier, annotation=[none]], source=org.matsim.core.router.TripRouterModule.install(TripRouterModule.java:44), scope=Scopes.NO_SCOPE, target=Key[type=org.matsim.core.router.MainModeIdentifierImpl, annotation=[none]]}
2018-07-29 19:19:26,981  INFO Injector:96 
2018-07-29 19:19:26,982  INFO Injector:85 org.matsim.core.router.util.LeastCostPathCalculatorFactory 
2018-07-29 19:19:26,982  INFO Injector:86   --> provider: FactoryProxy{key=Key[type=org.matsim.core.router.util.LeastCostPathCalculatorFactory, annotation=[none]], provider=com.google.inject.internal.ConstructorBindingImpl$Factory@2693b289[Scopes.SINGLETON]}
2018-07-29 19:19:26,982  INFO Injector:87   --> source: org.matsim.core.router.LeastCostPathCalculatorModule.install(LeastCostPathCalculatorModule.java:44)
2018-07-29 19:19:26,982  INFO Injector:89   --> scope: Scopes.NO_SCOPE
2018-07-29 19:19:26,982  INFO Injector:92   --> target: Key[type=org.matsim.core.router.FastDijkstraFactory, annotation=[none]]
2018-07-29 19:19:26,982  INFO Injector:94   ==full==> LinkedKeyBinding{key=Key[type=org.matsim.core.router.util.LeastCostPathCalculatorFactory, annotation=[none]], source=org.matsim.core.router.LeastCostPathCalculatorModule.install(LeastCostPathCalculatorModule.java:44), scope=Scopes.NO_SCOPE, target=Key[type=org.matsim.core.router.FastDijkstraFactory, annotation=[none]]}
2018-07-29 19:19:26,982  INFO Injector:96 
2018-07-29 19:19:26,982  INFO Injector:85 org.matsim.core.router.RoutingModule @com.google.inject.name.Named(value=ride)
2018-07-29 19:19:26,982  INFO Injector:86   --> provider: org.matsim.core.router.FreespeedFactorRouting@1d628a88
2018-07-29 19:19:26,982  INFO Injector:87   --> source: org.matsim.core.router.TripRouterModule.install(TripRouterModule.java:55)
2018-07-29 19:19:26,982  INFO Injector:89   --> scope: Scopes.NO_SCOPE
2018-07-29 19:19:26,982  INFO Injector:94   ==full==> ProviderInstanceBinding{key=Key[type=org.matsim.core.router.RoutingModule, annotation=@com.google.inject.name.Named(value=ride)], source=org.matsim.core.router.TripRouterModule.install(TripRouterModule.java:55), scope=Scopes.NO_SCOPE, provider=org.matsim.core.router.FreespeedFactorRouting@1d628a88}
2018-07-29 19:19:26,982  INFO Injector:96 
2018-07-29 19:19:26,982  INFO Injector:85 org.matsim.core.router.RoutingModule @com.google.inject.name.Named(value=pt)
2018-07-29 19:19:26,982  INFO Injector:86   --> provider: org.matsim.core.router.FreespeedFactorRouting@3c634a04
2018-07-29 19:19:26,982  INFO Injector:87   --> source: org.matsim.core.router.TripRouterModule.install(TripRouterModule.java:55)
2018-07-29 19:19:26,983  INFO Injector:89   --> scope: Scopes.NO_SCOPE
2018-07-29 19:19:26,983  INFO Injector:94   ==full==> ProviderInstanceBinding{key=Key[type=org.matsim.core.router.RoutingModule, annotation=@com.google.inject.name.Named(value=pt)], source=org.matsim.core.router.TripRouterModule.install(TripRouterModule.java:55), scope=Scopes.NO_SCOPE, provider=org.matsim.core.router.FreespeedFactorRouting@3c634a04}
2018-07-29 19:19:26,983  INFO Injector:96 
2018-07-29 19:19:26,983  INFO Injector:85 org.matsim.core.router.RoutingModule @com.google.inject.name.Named(value=bike)
2018-07-29 19:19:26,983  INFO Injector:86   --> provider: org.matsim.core.router.BeelineTeleportationRouting@4b48be5c
2018-07-29 19:19:26,983  INFO Injector:87   --> source: org.matsim.core.router.TripRouterModule.install(TripRouterModule.java:58)
2018-07-29 19:19:26,983  INFO Injector:89   --> scope: Scopes.NO_SCOPE
2018-07-29 19:19:26,983  INFO Injector:94   ==full==> ProviderInstanceBinding{key=Key[type=org.matsim.core.router.RoutingModule, annotation=@com.google.inject.name.Named(value=bike)], source=org.matsim.core.router.TripRouterModule.install(TripRouterModule.java:58), scope=Scopes.NO_SCOPE, provider=org.matsim.core.router.BeelineTeleportationRouting@4b48be5c}
2018-07-29 19:19:26,983  INFO Injector:96 
2018-07-29 19:19:26,983  INFO Injector:85 org.matsim.core.router.RoutingModule @com.google.inject.name.Named(value=walk)
2018-07-29 19:19:26,983  INFO Injector:86   --> provider: org.matsim.core.router.BeelineTeleportationRouting@3fe8d57a
2018-07-29 19:19:26,983  INFO Injector:87   --> source: org.matsim.core.router.TripRouterModule.install(TripRouterModule.java:58)
2018-07-29 19:19:26,983  INFO Injector:89   --> scope: Scopes.NO_SCOPE
2018-07-29 19:19:26,983  INFO Injector:94   ==full==> ProviderInstanceBinding{key=Key[type=org.matsim.core.router.RoutingModule, annotation=@com.google.inject.name.Named(value=walk)], source=org.matsim.core.router.TripRouterModule.install(TripRouterModule.java:58), scope=Scopes.NO_SCOPE, provider=org.matsim.core.router.BeelineTeleportationRouting@3fe8d57a}
2018-07-29 19:19:26,983  INFO Injector:96 
2018-07-29 19:19:26,983  INFO Injector:85 org.matsim.core.router.RoutingModule @com.google.inject.name.Named(value=access_walk)
2018-07-29 19:19:26,984  INFO Injector:86   --> provider: org.matsim.core.router.BeelineTeleportationRouting@36573ec5
2018-07-29 19:19:26,984  INFO Injector:87   --> source: org.matsim.core.router.TripRouterModule.install(TripRouterModule.java:58)
2018-07-29 19:19:26,984  INFO Injector:89   --> scope: Scopes.NO_SCOPE
2018-07-29 19:19:26,984  INFO Injector:94   ==full==> ProviderInstanceBinding{key=Key[type=org.matsim.core.router.RoutingModule, annotation=@com.google.inject.name.Named(value=access_walk)], source=org.matsim.core.router.TripRouterModule.install(TripRouterModule.java:58), scope=Scopes.NO_SCOPE, provider=org.matsim.core.router.BeelineTeleportationRouting@36573ec5}
2018-07-29 19:19:26,984  INFO Injector:96 
2018-07-29 19:19:26,984  INFO Injector:85 org.matsim.core.router.RoutingModule @com.google.inject.name.Named(value=egress_walk)
2018-07-29 19:19:26,984  INFO Injector:86   --> provider: org.matsim.core.router.BeelineTeleportationRouting@10c26161
2018-07-29 19:19:26,984  INFO Injector:87   --> source: org.matsim.core.router.TripRouterModule.install(TripRouterModule.java:58)
2018-07-29 19:19:26,984  INFO Injector:89   --> scope: Scopes.NO_SCOPE
2018-07-29 19:19:26,984  INFO Injector:94   ==full==> ProviderInstanceBinding{key=Key[type=org.matsim.core.router.RoutingModule, annotation=@com.google.inject.name.Named(value=egress_walk)], source=org.matsim.core.router.TripRouterModule.install(TripRouterModule.java:58), scope=Scopes.NO_SCOPE, provider=org.matsim.core.router.BeelineTeleportationRouting@10c26161}
2018-07-29 19:19:26,984  INFO Injector:96 
2018-07-29 19:19:26,984  INFO Injector:85 org.matsim.core.router.RoutingModule @com.google.inject.name.Named(value=undefined)
2018-07-29 19:19:26,984  INFO Injector:86   --> provider: org.matsim.core.router.BeelineTeleportationRouting@1ef6977b
2018-07-29 19:19:26,984  INFO Injector:87   --> source: org.matsim.core.router.TripRouterModule.install(TripRouterModule.java:58)
2018-07-29 19:19:26,985  INFO Injector:89   --> scope: Scopes.NO_SCOPE
2018-07-29 19:19:26,985  INFO Injector:94   ==full==> ProviderInstanceBinding{key=Key[type=org.matsim.core.router.RoutingModule, annotation=@com.google.inject.name.Named(value=undefined)], source=org.matsim.core.router.TripRouterModule.install(TripRouterModule.java:58), scope=Scopes.NO_SCOPE, provider=org.matsim.core.router.BeelineTeleportationRouting@1ef6977b}
2018-07-29 19:19:26,985  INFO Injector:96 
2018-07-29 19:19:26,985  INFO Injector:85 org.matsim.core.replanning.selectors.PlanSelector<org.matsim.api.core.v01.population.Plan, org.matsim.api.core.v01.population.Person> 
2018-07-29 19:19:26,985  INFO Injector:86   --> provider: FactoryProxy{key=Key[type=org.matsim.core.replanning.selectors.PlanSelector<org.matsim.api.core.v01.population.Plan, org.matsim.api.core.v01.population.Person>, annotation=[none]], provider=com.google.inject.internal.ConstructorBindingImpl$Factory@7740028a}
2018-07-29 19:19:26,985  INFO Injector:87   --> source: org.matsim.core.replanning.strategies.DefaultPlanStrategiesModule.install(DefaultPlanStrategiesModule.java:51)
2018-07-29 19:19:26,985  INFO Injector:89   --> scope: Scopes.NO_SCOPE
2018-07-29 19:19:26,985  INFO Injector:92   --> target: Key[type=org.matsim.core.replanning.selectors.WorstPlanForRemovalSelector, annotation=[none]]
[...]
2018-07-29 19:29:45,868  INFO QSim:506 SIMULATION (NEW QSim) AT 16:00:00 : #Veh=156 lost=0 simT=57301.0s realT=2s; (s/r): 28650.5
2018-07-29 19:29:45,868  INFO Gbl:57 used RAM: 705540112B = 689004kB = 672MB  free: 1193431024B = 1138MB  total: 1898971136B = 1811MB
2018-07-29 19:29:46,007  INFO QNetsimEngine:347 SIMULATION (QNetsimEngine) AT 17:00:00 : #links=33 #nodes=6
2018-07-29 19:29:46,008  INFO QSim:506 SIMULATION (NEW QSim) AT 17:00:00 : #Veh=128 lost=0 simT=60901.0s realT=2s; (s/r): 30450.5
2018-07-29 19:29:46,008  INFO Gbl:57 used RAM: 705540112B = 689004kB = 672MB  free: 1193431024B = 1138MB  total: 1898971136B = 1811MB
2018-07-29 19:29:46,151  INFO QNetsimEngine:347 SIMULATION (QNetsimEngine) AT 18:00:00 : #links=20 #nodes=4
2018-07-29 19:29:46,151  INFO QSim:506 SIMULATION (NEW QSim) AT 18:00:00 : #Veh=87 lost=0 simT=64501.0s realT=2s; (s/r): 32250.5
2018-07-29 19:29:46,151  INFO Gbl:57 used RAM: 705540112B = 689004kB = 672MB  free: 1193431024B = 1138MB  total: 1898971136B = 1811MB
2018-07-29 19:29:46,284  INFO QNetsimEngine:347 SIMULATION (QNetsimEngine) AT 19:00:00 : #links=16 #nodes=1
2018-07-29 19:29:46,284  INFO QSim:506 SIMULATION (NEW QSim) AT 19:00:00 : #Veh=57 lost=0 simT=68101.0s realT=2s; (s/r): 34050.5
2018-07-29 19:29:46,284  INFO Gbl:57 used RAM: 713418488B = 696697kB = 680MB  free: 1185552648B = 1130MB  total: 1898971136B = 1811MB
2018-07-29 19:29:46,415  INFO QNetsimEngine:347 SIMULATION (QNetsimEngine) AT 20:00:00 : #links=6 #nodes=1
2018-07-29 19:29:46,415  INFO QSim:506 SIMULATION (NEW QSim) AT 20:00:00 : #Veh=40 lost=0 simT=71701.0s realT=2s; (s/r): 35850.5
2018-07-29 19:29:46,415  INFO Gbl:57 used RAM: 713418488B = 696697kB = 680MB  free: 1185552648B = 1130MB  total: 1898971136B = 1811MB
2018-07-29 19:29:46,538  INFO QNetsimEngine:347 SIMULATION (QNetsimEngine) AT 21:00:00 : #links=7 #nodes=0
2018-07-29 19:29:46,538  INFO QSim:506 SIMULATION (NEW QSim) AT 21:00:00 : #Veh=31 lost=0 simT=75301.0s realT=3s; (s/r): 25100.333333333332
2018-07-29 19:29:46,538  INFO Gbl:57 used RAM: 732691208B = 715518kB = 698MB  free: 1166279928B = 1112MB  total: 1898971136B = 1811MB
2018-07-29 19:29:46,663  INFO QNetsimEngine:347 SIMULATION (QNetsimEngine) AT 22:00:00 : #links=7 #nodes=0
2018-07-29 19:29:46,664  INFO QSim:506 SIMULATION (NEW QSim) AT 22:00:00 : #Veh=22 lost=0 simT=78901.0s realT=3s; (s/r): 26300.333333333332
2018-07-29 19:29:46,664  INFO Gbl:57 used RAM: 732691208B = 715518kB = 698MB  free: 1166279928B = 1112MB  total: 1898971136B = 1811MB
2018-07-29 19:29:46,787  INFO QNetsimEngine:347 SIMULATION (QNetsimEngine) AT 23:00:00 : #links=4 #nodes=0
2018-07-29 19:29:46,787  INFO QSim:506 SIMULATION (NEW QSim) AT 23:00:00 : #Veh=13 lost=0 simT=82501.0s realT=3s; (s/r): 27500.333333333332
2018-07-29 19:29:46,787  INFO Gbl:57 used RAM: 732691208B = 715518kB = 698MB  free: 1166279928B = 1112MB  total: 1898971136B = 1811MB
2018-07-29 19:29:46,908  INFO QNetsimEngine:347 SIMULATION (QNetsimEngine) AT 24:00:00 : #links=5 #nodes=0
2018-07-29 19:29:46,908  INFO QSim:506 SIMULATION (NEW QSim) AT 24:00:00 : #Veh=8 lost=0 simT=86101.0s realT=3s; (s/r): 28700.333333333332
2018-07-29 19:29:46,908  INFO Gbl:57 used RAM: 732691208B = 715518kB = 698MB  free: 1166279928B = 1112MB  total: 1898971136B = 1811MB
2018-07-29 19:29:47,029  INFO QNetsimEngine:347 SIMULATION (QNetsimEngine) AT 25:00:00 : #links=2 #nodes=0
2018-07-29 19:29:47,029  INFO QSim:506 SIMULATION (NEW QSim) AT 25:00:00 : #Veh=2 lost=0 simT=89701.0s realT=3s; (s/r): 29900.333333333332
2018-07-29 19:29:47,029  INFO Gbl:57 used RAM: 732691208B = 715518kB = 698MB  free: 1166279928B = 1112MB  total: 1898971136B = 1811MB
2018-07-29 19:29:47,043  INFO AbstractController$9:220 ### ITERATION 100 fires after mobsim event
2018-07-29 19:29:47,043  INFO Gbl:190 Thread performance: Thread=class org.matsim.core.events.SimStepParallelEventsManagerImpl$ProcessEventsRunnable0  cpu-time=1.118629sec
2018-07-29 19:29:47,044  INFO ControlerListenerManagerImpl:248 calling notifyAfterMobsim on org.matsim.analysis.LegTimesControlerListener
2018-07-29 19:29:47,044  INFO LegTimesControlerListener:50 [100] average trip (probably: leg) duration is: 6901 seconds = 01:55:01
2018-07-29 19:29:47,044  INFO ControlerListenerManagerImpl:248 calling notifyAfterMobsim on org.matsim.contrib.decongestion.DecongestionControlerListener
2018-07-29 19:29:47,188  INFO CongestionInfoWriter:53 Writing csv file...
2018-07-29 19:29:47,299  INFO CongestionInfoWriter:87 Output written to test/output/femproto/run/DifferentVariantsTestIT/test//optimizeSafeNodesByPerson_takeTimesFromInputPlans/ITERS/it.100/delays_perLinkAndTimeBin.csv
2018-07-29 19:29:47,300  INFO CongestionInfoWriter:137 Writing csv file...
2018-07-29 19:29:47,447  INFO CongestionInfoWriter:171 Output written to test/output/femproto/run/DifferentVariantsTestIT/test//optimizeSafeNodesByPerson_takeTimesFromInputPlans/ITERS/it.100/toll_perLinkAndTimeBin.csv
2018-07-29 19:29:47,447  INFO CongestionInfoWriter:212 Writing csv file...
2018-07-29 19:29:50,282  INFO CongestionInfoWriter:261 Output written to test/output/femproto/run/DifferentVariantsTestIT/test//optimizeSafeNodesByPerson_takeTimesFromInputPlans/ITERS/it.100/100.decongestion_info_via.csv.gz
2018-07-29 19:29:50,282  INFO ControlerListenerManagerImpl:248 calling notifyAfterMobsim on org.matsim.core.scoring.EventsToActivities$1
2018-07-29 19:29:50,282  WARN CharyparNagelActivityScoring:252 The first and the last activity do not have the same type. 
2018-07-29 19:29:50,282  WARN CharyparNagelActivityScoring:253 Will score the first activity from midnight to its end, and the last activity from its start to midnight.
2018-07-29 19:29:50,283  WARN CharyparNagelActivityScoring:254 Because of the nonlinear function, this is not the same as scoring from start to end.
2018-07-29 19:29:50,283  WARN CharyparNagelActivityScoring:255 first activity: [type=evac][coord=null][linkId=14673-13949][startTime=undefined][endTime=16:15:00][duration=undefined][facilityId=null]
2018-07-29 19:29:50,283  WARN CharyparNagelActivityScoring:256 last activity: [type=safe][coord=null][linkId=11119-15923][startTime=22:46:37][endTime=undefined][duration=undefined][facilityId=null]
2018-07-29 19:29:50,283  WARN CharyparNagelActivityScoring:257 This may also happen when plans are not completed when the simulation ends.
2018-07-29 19:29:50,283  WARN CharyparNagelActivityScoring:259 Additional warnings of this type are suppressed.
2018-07-29 19:29:50,284  INFO ControlerListenerManagerImpl:251 [it.100] all ControlerAfterMobsimListeners called.
2018-07-29 19:29:50,284  INFO AbstractController$4:149 ### ITERATION 100 fires scoring event
2018-07-29 19:29:50,284  INFO ControlerListenerManagerImpl:183 calling notifyScoring on org.matsim.core.scoring.PlansScoringImpl
2018-07-29 19:29:50,285  INFO NewScoreAssignerImpl:36 it: 100 msaStart: 70
2018-07-29 19:29:50,285  INFO ControlerListenerManagerImpl:194 [it.100] all ControlerScoringListeners called.
2018-07-29 19:29:50,285  INFO AbstractController$5:157 ### ITERATION 100 fires iteration end event
2018-07-29 19:29:50,285  INFO ControlerListenerManagerImpl:160 calling notifyIterationEnds on org.matsim.core.controler.corelisteners.EventsHandlingImpl
2018-07-29 19:29:50,286  INFO EventsManagerImpl:161 removing Event-Handler: org.matsim.core.events.algorithms.EventWriterXML
2018-07-29 19:29:50,286  INFO EventsManagerImpl:161 removing Event-Handler: org.matsim.core.events.algorithms.EventWriterXML
2018-07-29 19:29:50,287  INFO ControlerListenerManagerImpl:160 calling notifyIterationEnds on org.matsim.core.scoring.PlansScoringImpl
2018-07-29 19:29:50,287  INFO PopulationImpl:112  person # 1
2018-07-29 19:29:50,287  INFO PopulationImpl:112  person # 4
2018-07-29 19:29:50,287  INFO PopulationImpl:112  person # 16
2018-07-29 19:29:50,287  INFO PopulationImpl:112  person # 64
2018-07-29 19:29:50,287  INFO PopulationImpl:112  person # 256
2018-07-29 19:29:50,288  INFO Counter:70 [PopulationWriter] dumped person # 1
2018-07-29 19:29:50,288  INFO Counter:70 [PopulationWriter] dumped person # 2
2018-07-29 19:29:50,289  INFO Counter:70 [PopulationWriter] dumped person # 4
2018-07-29 19:29:50,289  INFO Counter:70 [PopulationWriter] dumped person # 8
2018-07-29 19:29:50,289  INFO Counter:70 [PopulationWriter] dumped person # 16
2018-07-29 19:29:50,290  INFO Counter:70 [PopulationWriter] dumped person # 32
2018-07-29 19:29:50,291  INFO Counter:70 [PopulationWriter] dumped person # 64
2018-07-29 19:29:50,292  INFO Counter:70 [PopulationWriter] dumped person # 128
2018-07-29 19:29:50,295  INFO Counter:70 [PopulationWriter] dumped person # 256
2018-07-29 19:29:50,300  INFO Counter:70 [PopulationWriter] dumped person # 512
2018-07-29 19:29:50,306  INFO PopulationWriter:139 Population written to: test/output/femproto/run/DifferentVariantsTestIT/test//optimizeSafeNodesByPerson_takeTimesFromInputPlans/ITERS/it.100/100.experienced_plans.xml.gz
2018-07-29 19:29:50,307  INFO Counter:76 [PopulationWriter] dumped person # 802
2018-07-29 19:29:50,311  INFO ControlerListenerManagerImpl:167 calling notifyIterationEnds on org.matsim.counts.CountsControlerListener
2018-07-29 19:29:50,311  INFO CountSimComparisonTableWriter:93 Writing CountsSimComparison to test/output/femproto/run/DifferentVariantsTestIT/test//optimizeSafeNodesByPerson_takeTimesFromInputPlans/ITERS/it.100/100.countscompare.txt
2018-07-29 19:29:50,311  INFO CountSimComparisonTableWriter:134 Writing 'average weekday traffic volume' to test/output/femproto/run/DifferentVariantsTestIT/test//optimizeSafeNodesByPerson_takeTimesFromInputPlans/ITERS/it.100/100.countscompareAWTV.txt
2018-07-29 19:29:50,311  INFO ControlerListenerManagerImpl:167 calling notifyIterationEnds on org.matsim.analysis.ModeStatsControlerListener
2018-07-29 19:29:50,312  INFO ModeStatsControlerListener:155 -- mode share of mode bike = 0.0
2018-07-29 19:29:50,312  INFO ModeStatsControlerListener:155 -- mode share of mode car = 1.0
2018-07-29 19:29:50,312  INFO ModeStatsControlerListener:155 -- mode share of mode other = 0.0
2018-07-29 19:29:50,312  INFO ModeStatsControlerListener:155 -- mode share of mode pt = 0.0
2018-07-29 19:29:50,313  INFO ModeStatsControlerListener:155 -- mode share of mode ride = 0.0
2018-07-29 19:29:50,313  INFO ModeStatsControlerListener:155 -- mode share of mode walk = 0.0
2018-07-29 19:29:50,407  INFO ControlerListenerManagerImpl:167 calling notifyIterationEnds on org.matsim.analysis.ScoreStatsControlerListener
2018-07-29 19:29:50,408  INFO ScoreStatsControlerListener:191 -- avg. score of the executed plan of each agent: -1601.0425553284722
2018-07-29 19:29:50,408  INFO ScoreStatsControlerListener:192 -- avg. score of the worst plan of each agent: -523437.5591909534
2018-07-29 19:29:50,409  INFO ScoreStatsControlerListener:193 -- avg. of the avg. plan score per agent: -179434.10051378646
2018-07-29 19:29:50,409  INFO ScoreStatsControlerListener:194 -- avg. score of the best plan of each agent: -1600.1138339597778
2018-07-29 19:29:50,551  INFO ControlerListenerManagerImpl:167 calling notifyIterationEnds on org.matsim.analysis.TravelDistanceStatsControlerListener
2018-07-29 19:29:50,551  INFO TravelDistanceStats:128 [TravelDistanceStats] using 2 thread(s).
2018-07-29 19:29:50,639  INFO TravelDistanceStats:141 [TravelDistanceStats] all threads finished.
2018-07-29 19:29:50,639  INFO TravelDistanceStats:161 -- average of the average leg distance per plan (executed plans only): 21241.820502349132
2018-07-29 19:29:50,639  INFO TravelDistanceStats:162 (TravelDistanceStats takes an average over all legs where the simulation reports travelled distances. These are car legs, pt legs,
2018-07-29 19:29:50,640  INFO TravelDistanceStats:163 (and teleported legs whose route contains a distance.)
2018-07-29 19:29:50,719  INFO ControlerListenerManagerImpl:167 calling notifyIterationEnds on org.matsim.analysis.LegHistogramListener
2018-07-29 19:29:50,719  INFO LegHistogramListener:72 number of legs:	802	100%
2018-07-29 19:29:50,720  INFO LegHistogramListener:79 number of car legs:	802	100.0%
2018-07-29 19:29:51,005  INFO ControlerListenerManagerImpl:167 calling notifyIterationEnds on org.matsim.analysis.LinkStatsControlerListener
2018-07-29 19:29:51,433  INFO ControlerListenerManagerImpl:167 calling notifyIterationEnds on org.matsim.contrib.decongestion.DecongestionControlerListener
2018-07-29 19:29:51,434  INFO CongestionInfoWriter:297 Output written to test/output/femproto/run/DifferentVariantsTestIT/test//optimizeSafeNodesByPerson_takeTimesFromInputPlans/congestionInfo.csv
2018-07-29 19:29:51,564  INFO ControlerListenerManagerImpl:167 calling notifyIterationEnds on femproto.run.OutputEvents2TravelDiaries
2018-07-29 19:29:51,565  INFO Counter:70 Output lines written: 1
2018-07-29 19:29:51,565  INFO Counter:70 Output lines written: 2
2018-07-29 19:29:51,565  INFO Counter:70 Output lines written: 4
2018-07-29 19:29:51,566  INFO Counter:70 Output lines written: 8
2018-07-29 19:29:51,566  INFO Counter:70 Output lines written: 16
2018-07-29 19:29:51,566  INFO Counter:70 Output lines written: 32
2018-07-29 19:29:51,567  INFO Counter:70 Output lines written: 64
2018-07-29 19:29:51,568  INFO Counter:70 Output lines written: 128
2018-07-29 19:29:51,571  INFO Counter:70 Output lines written: 256
2018-07-29 19:29:51,577  INFO Counter:70 Output lines written: 512
2018-07-29 19:29:51,590  INFO Counter:70 Output lines written: 1024
2018-07-29 19:29:51,610  INFO Counter:76 Output lines written: 1604
2018-07-29 19:29:51,611  INFO ControlerListenerManagerImpl:167 calling notifyIterationEnds on org.matsim.contrib.analysis.kai.KaiAnalysisListener
2018-07-29 19:29:51,658  INFO ControlerListenerManagerImpl:171 [it.100] all ControlerIterationEndsListeners called.
2018-07-29 19:29:51,819  INFO AbstractController:167 ### ITERATION 100 ENDS
2018-07-29 19:29:51,819  INFO AbstractController:168 ###################################################
2018-07-29 19:29:51,819  INFO MatsimRuntimeModifications:58 S H U T D O W N   ---   start shutdown.
2018-07-29 19:29:51,819  INFO ControlerListenerManagerImpl:121 calling notifyShutdown on org.matsim.core.controler.corelisteners.EventsHandlingImpl
2018-07-29 19:29:51,819  INFO ControlerListenerManagerImpl:121 calling notifyShutdown on org.matsim.core.controler.corelisteners.DumpDataAtEndImpl
2018-07-29 19:29:51,820  INFO Counter:70 [PopulationWriter] dumped person # 1
2018-07-29 19:29:51,820  INFO Counter:70 [PopulationWriter] dumped person # 2
2018-07-29 19:29:51,821  INFO Counter:70 [PopulationWriter] dumped person # 4
2018-07-29 19:29:51,822  INFO Counter:70 [PopulationWriter] dumped person # 8
2018-07-29 19:29:51,823  INFO Counter:70 [PopulationWriter] dumped person # 16
2018-07-29 19:29:51,827  INFO Counter:70 [PopulationWriter] dumped person # 32
2018-07-29 19:29:51,834  INFO Counter:70 [PopulationWriter] dumped person # 64
2018-07-29 19:29:51,848  INFO Counter:70 [PopulationWriter] dumped person # 128
2018-07-29 19:29:51,871  INFO Counter:70 [PopulationWriter] dumped person # 256
2018-07-29 19:29:51,921  INFO Counter:70 [PopulationWriter] dumped person # 512
2018-07-29 19:29:51,985  INFO PopulationWriter:139 Population written to: test/output/femproto/run/DifferentVariantsTestIT/test//optimizeSafeNodesByPerson_takeTimesFromInputPlans/output_plans.xml.gz
2018-07-29 19:29:51,985  INFO Counter:76 [PopulationWriter] dumped person # 802
2018-07-29 19:29:51,991  INFO NetworkWriter:68 Writing network to file: test/output/femproto/run/DifferentVariantsTestIT/test//optimizeSafeNodesByPerson_takeTimesFromInputPlans/output_network.xml.gz...
2018-07-29 19:29:52,134  INFO NetworkWriter:71 done.
2018-07-29 19:29:52,139  INFO Config:569 setting context to [file:/Users/kainagel/git/au-flood-evacuation/]
2018-07-29 19:29:52,141  INFO Config:569 setting context to [file:/Users/kainagel/git/au-flood-evacuation/]
2018-07-29 19:29:52,142  INFO Config:569 setting context to [file:/Users/kainagel/git/au-flood-evacuation/]
2018-07-29 19:29:52,145  INFO Config:569 setting context to [file:/Users/kainagel/git/au-flood-evacuation/]
2018-07-29 19:29:52,148  INFO Config:569 setting context to [file:/Users/kainagel/git/au-flood-evacuation/]
2018-07-29 19:29:52,150  INFO Config:569 setting context to [file:/Users/kainagel/git/au-flood-evacuation/]
2018-07-29 19:29:52,152  INFO Config:569 setting context to [file:/Users/kainagel/git/au-flood-evacuation/]
2018-07-29 19:29:52,153  INFO Config:569 setting context to [file:/Users/kainagel/git/au-flood-evacuation/]
2018-07-29 19:29:52,155  INFO Config:569 setting context to [file:/Users/kainagel/git/au-flood-evacuation/]
2018-07-29 19:29:52,156  INFO Config:569 setting context to [file:/Users/kainagel/git/au-flood-evacuation/]
2018-07-29 19:29:52,157  INFO Config:569 setting context to [file:/Users/kainagel/git/au-flood-evacuation/]
2018-07-29 19:29:52,159  INFO Config:569 setting context to [file:/Users/kainagel/git/au-flood-evacuation/]
2018-07-29 19:29:52,160  INFO Config:569 setting context to [file:/Users/kainagel/git/au-flood-evacuation/]
2018-07-29 19:29:52,161  INFO Config:569 setting context to [file:/Users/kainagel/git/au-flood-evacuation/]
2018-07-29 19:29:52,164  INFO Config:569 setting context to [file:/Users/kainagel/git/au-flood-evacuation/]
2018-07-29 19:29:52,165  INFO Config:569 setting context to [file:/Users/kainagel/git/au-flood-evacuation/]
2018-07-29 19:29:52,167  INFO Config:569 setting context to [file:/Users/kainagel/git/au-flood-evacuation/]
2018-07-29 19:29:52,168  INFO Config:569 setting context to [file:/Users/kainagel/git/au-flood-evacuation/]
2018-07-29 19:29:52,170  INFO Config:569 setting context to [file:/Users/kainagel/git/au-flood-evacuation/]
2018-07-29 19:29:52,172  INFO Config:569 setting context to [file:/Users/kainagel/git/au-flood-evacuation/]
2018-07-29 19:29:52,173  INFO Config:569 setting context to [file:/Users/kainagel/git/au-flood-evacuation/]
2018-07-29 19:29:52,176  INFO Config:569 setting context to [file:/Users/kainagel/git/au-flood-evacuation/]
2018-07-29 19:29:52,178  INFO Config:569 setting context to [file:/Users/kainagel/git/au-flood-evacuation/]
2018-07-29 19:29:52,180  INFO Config:569 setting context to [file:/Users/kainagel/git/au-flood-evacuation/]
2018-07-29 19:29:52,181  INFO Config:569 setting context to [file:/Users/kainagel/git/au-flood-evacuation/]
2018-07-29 19:29:52,183  INFO Config:569 setting context to [file:/Users/kainagel/git/au-flood-evacuation/]
2018-07-29 19:29:52,184  INFO Config:569 setting context to [file:/Users/kainagel/git/au-flood-evacuation/]
2018-07-29 19:29:52,189  INFO VehicleWriterV1:55 Vehicles written to: test/output/femproto/run/DifferentVariantsTestIT/test//optimizeSafeNodesByPerson_takeTimesFromInputPlans/output_vehicles.xml.gz
2018-07-29 19:29:52,189  INFO Counter:76 [HouseholdsWriter] dumped household # 0
2018-07-29 19:29:52,189  INFO LanesWriter:62 Using LaneDefinitionWriter20...
2018-07-29 19:29:52,190  INFO LanesWriter:71 writing to file: test/output/femproto/run/DifferentVariantsTestIT/test//optimizeSafeNodesByPerson_takeTimesFromInputPlans/output_lanes.xml.gz
2018-07-29 19:29:52,217  INFO ControlerListenerManagerImpl:126 calling notifyShutdown on org.matsim.analysis.ModeStatsControlerListener
2018-07-29 19:29:52,217  INFO ControlerListenerManagerImpl:126 calling notifyShutdown on org.matsim.analysis.ScoreStatsControlerListener
2018-07-29 19:29:52,218  INFO ControlerListenerManagerImpl:126 calling notifyShutdown on org.matsim.analysis.TravelDistanceStatsControlerListener
2018-07-29 19:29:52,218  INFO ControlerListenerManagerImpl:129 all ControlerShutdownListeners called.
2018-07-29 19:29:52,218  INFO MatsimRuntimeModifications:81 S H U T D O W N   ---   shutdown completed.
2018-07-29 19:29:52,218  INFO OutputDirectoryLogging:146 closing the logfile, i.e. messages sent to the logger after this message are not written to the logfile.
